LIG
     RDKit          3D

 36 35  0  0  0  0  0  0  0  0999 V2000
    1.7569   -1.0551    1.3790 C   0  0  0  0  0  0  0  0  0  0  0  0
    0.6108   -2.0275    1.6826 C   0  0  0  0  0  0  0  0  0  0  0  0
   -0.7407   -1.3490    1.7869 C   0  0  0  0  0  0  0  0  0  0  0  0
   -0.9207   -0.2680    2.3300 O   0  0  0  0  0  0  0  0  0  0  0  0
   -2.0713   -2.2690    1.0934 S   0  0  0  0  0  0  0  0  0  0  0  0
   -3.4411   -1.0788    1.3268 C   0  0  0  0  0  0  0  0  0  0  0  0
    2.0832   -0.8142   -0.1180 C   0  0  1  0  0  0  0  0  0  0  0  0
    2.5496   -2.1170   -0.7966 C   0  0  0  0  0  0  0  0  0  0  0  0
    0.9339   -0.1525   -0.9236 C   0  0  1  0  0  0  0  0  0  0  0  0
    0.6210    1.1857   -0.3896 C   0  0  0  0  0  0  0  0  0  0  0  0
    0.3657    2.2760    0.0454 C   0  0  0  0  0  0  0  0  0  0  0  0
    0.1464    3.2429    0.4358 H   0  0  0  0  0  0  0  0  0  0  0  0
    1.3587   -0.0328   -2.2930 O   0  0  0  0  0  0  0  0  0  0  0  0
   -3.3773    0.2223    0.5049 C   0  0  1  0  0  0  0  0  0  0  0  0
   -3.2989   -0.0912   -1.2993 S   0  0  0  0  0  0  0  0  0  0  0  0
   -4.5583    0.9975    0.7761 O   0  0  0  0  0  0  0  0  0  0  0  0
   -4.5325   -0.6069   -1.3949 H   0  0  0  0  0  0  0  0  0  0  0  0
   -4.3408    1.6554    2.0592 O   0  0  0  0  0  0  0  0  0  0  0  0
    1.7030   -2.7574   -1.0642 H   0  0  0  0  0  0  0  0  0  0  0  0
    2.6644   -1.4636    1.8446 H   0  0  0  0  0  0  0  0  0  0  0  0
    1.5867   -0.0932    1.8765 H   0  0  0  0  0  0  0  0  0  0  0  0
   -4.3736   -1.6080    1.0937 H   0  0  0  0  0  0  0  0  0  0  0  0
   -3.5136   -0.8427    2.3951 H   0  0  0  0  0  0  0  0  0  0  0  0
    0.0513   -0.7996   -0.8872 H   0  0  0  0  0  0  0  0  0  0  0  0
   -2.5000    0.8233    0.7598 H   0  0  0  0  0  0  0  0  0  0  0  0
   -4.2827    2.5646    1.7109 H   0  0  0  0  0  0  0  0  0  0  0  0
    0.2698    0.1548   -3.1932 C   0  0  0  0  0  0  0  0  0  0  0  0
    0.5900   -2.8447    0.9561 H   0  0  0  0  0  0  0  0  0  0  0  0
    0.7879   -2.4850    2.6645 H   0  0  0  0  0  0  0  0  0  0  0  0
    2.9411   -0.1254   -0.1510 H   0  0  0  0  0  0  0  0  0  0  0  0
    3.2905   -1.8499   -1.9813 O   0  0  0  0  0  0  0  0  0  0  0  0
    3.2078   -2.6877   -0.1339 H   0  0  0  0  0  0  0  0  0  0  0  0
   -0.2739    1.0770   -2.9702 H   0  0  0  0  0  0  0  0  0  0  0  0
    2.7995   -1.1567   -2.4711 H   0  0  0  0  0  0  0  0  0  0  0  0
   -0.4062   -0.7046   -3.1569 H   0  0  0  0  0  0  0  0  0  0  0  0
    0.6765    0.2306   -4.2053 H   0  0  0  0  0  0  0  0  0  0  0  0
  1  2  1  0
  2  3  1  0
  3  5  1  0
  4  3  2  0
  5  6  1  0
  7  1  1  0
  8  7  1  0
  9 13  1  0
 10 11  3  0
 10  9  1  0
 11 12  1  0
  9  7  1  0
 14 16  1  0
 15 14  1  0
 15 17  1  0
 18 16  1  0
 14  6  1  0
 19  8  1  0
 20  1  1  0
 21  1  1  0
  6 22  1  0
  6 23  1  0
  9 24  1  6
 14 25  1  1
 18 26  1  0
 27 13  1  0
  2 28  1  0
  2 29  1  0
  7 30  1  1
  8 31  1  0
  8 32  1  0
 27 33  1  0
 34 31  1  0
 27 35  1  0
 27 36  1  0
A    1
 C1 
A    2
 C2 
A    3
 C3 
A    4
 O1 
A    5
 S1 
A    6
 C4 
A    7
 C5 
A    8
 C6 
A    9
 C7 
A   10
 C8 
A   11
 C9 
A   12
 H1 
A   13
 H2 
A   14
 C10
A   15
 S2 
A   16
 O2 
A   17
 H3 
A   18
 O3 
A   19
 H4 
A   20
 H5 
A   21
 H6 
A   22
 H7 
A   23
 H8 
A   24
 H9 
A   25
 H10
A   26
 H11
A   27
 C11
A   28
 H11
A   29
 H12
A   30
 H13
A   31
 H14
A   32
 H15
A   33
 H16
A   34
 H16
A   35
 H17
A   36
 H18
M  END
