fraglig_862_min_6PQL_A_2.97761_rhidx
 OpenBabel03222605103D

  8  7  0  0  0  0  0  0  0  0999 V2000
   56.6900   58.7200  117.6700 C   0  0  0  0  0  0  0  0  0  0  0  0
   57.8600   58.5400  117.7900 C   0  0  0  0  0  0  0  0  0  0  0  0
   59.3000   58.3500  117.9300 C   0  0  0  0  0  0  0  0  0  0  0  0
   60.1100   59.1500  117.5000 O   0  0  0  0  0  0  0  0  0  0  0  0
   59.7600   56.9900  119.0000 S   0  0  0  0  0  0  0  0  0  0  0  0
   61.3900   57.3700  119.1500 C   0  0  0  0  0  0  0  0  0  0  0  0
   55.5000   58.9100  117.5700 C   0  0  0  0  0  0  0  0  0  0  0  0
   54.3300   59.1100  117.4600 C   0  0  0  0  0  0  0  0  0  0  0  0
  1  2  3  0  0  0  0
  2  3  1  0  0  0  0
  3  5  1  0  0  0  0
  4  3  2  0  0  0  0
  5  6  1  0  0  0  0
  7  1  1  0  0  0  0
  8  7  3  0  0  0  0
M  END
$$$$
fraglig_148_min_6PQL_A_2.81686_rhidx
 OpenBabel03212607483D

 10  9  0  0  0  0  0  0  0  0999 V2000
   56.7200   59.7400  117.7100 C   0  0  0  0  0  0  0  0  0  0  0  0
   57.7200   59.0700  117.8200 C   0  0  0  0  0  0  0  0  0  0  0  0
   58.6700   58.3400  117.9900 C   0  0  0  0  0  0  0  0  0  0  0  0
   59.5900   57.5900  118.2000 C   0  0  0  0  0  0  0  0  0  0  0  0
   60.5800   56.8000  118.5200 O   0  0  0  0  0  0  0  0  0  0  0  0
   61.4600   57.4000  119.2800 C   0  0  0  0  0  0  0  0  0  0  0  0
   62.2400   57.9500  119.9500 O   0  0  0  0  0  0  0  0  0  0  0  0
   55.6800   60.3500  117.6700 C   0  0  0  0  0  0  0  0  0  0  0  0
   54.6200   60.9100  117.6900 C   0  0  0  0  0  0  0  0  0  0  0  0
   53.5600   61.4600  117.7400 C   0  0  0  0  0  0  0  0  0  0  0  0
  1  2  1  0  0  0  0
  2  3  1  0  0  0  0
  3  4  3  0  0  0  0
  4  5  1  0  0  0  0
  5  6  1  0  0  0  0
  6  7  1  0  0  0  0
  8  9  1  0  0  0  0
  8  1  3  0  0  0  0
  9 10  3  0  0  0  0
M  END
$$$$
fraglig_86_min_6PQL_A_2.80325_rhidx
 OpenBabel03222605243D

  9  8  0  0  0  0  0  0  0  0999 V2000
   57.4300   59.6400  117.9200 C   0  0  0  0  0  0  0  0  0  0  0  0
   58.5900   59.4500  118.0800 C   0  0  0  0  0  0  0  0  0  0  0  0
   59.7800   59.4100  118.2400 C   0  0  0  0  0  0  0  0  0  0  0  0
   61.0800   59.5300  118.3900 O   0  0  0  0  0  0  0  0  0  0  0  0
   61.6400   58.6400  119.1800 C   0  0  0  0  0  0  0  0  0  0  0  0
   62.1300   57.8300  119.8600 O   0  0  0  0  0  0  0  0  0  0  0  0
   56.2900   59.9900  117.7300 C   0  0  0  0  0  0  0  0  0  0  0  0
   55.2100   60.4500  117.5500 C   0  0  0  0  0  0  0  0  0  0  0  0
   54.1500   60.9700  117.3600 C   0  0  0  0  0  0  0  0  0  0  0  0
  1  2  3  0  0  0  0
  2  3  1  0  0  0  0
  3  4  1  0  0  0  0
  4  5  1  0  0  0  0
  5  6  1  0  0  0  0
  7  1  1  0  0  0  0
  8  7  3  0  0  0  0
  9  8  1  0  0  0  0
M  END
$$$$
fraglig_598_min_6PQL_A_2.78507_rhidx
 OpenBabel03212621233D

 13 13  0  0  1  0  0  0  0  0999 V2000
   61.2400   58.1900  121.4000 C   0  0  0  0  0  0  0  0  0  0  0  0
   60.7400   58.2700  120.1800 C   0  0  2  0  0  0  0  0  0  0  0  0
   59.4800   58.1300  120.0200 C   0  0  0  0  0  0  0  0  0  0  0  0
   58.8300   57.5100  119.0900 N   0  0  0  0  0  0  0  0  0  0  0  0
   59.9700   57.1400  118.4200 N   0  0  0  0  0  0  0  0  0  0  0  0
   61.0500   57.4300  119.0900 N   0  0  0  0  0  0  0  0  0  0  0  0
   57.8000   58.1400  118.5000 C   0  0  0  0  0  0  0  0  0  0  0  0
   56.8400   58.7600  118.1400 C   0  0  0  0  0  0  0  0  0  0  0  0
   55.8600   59.4000  117.8800 C   0  0  0  0  0  0  0  0  0  0  0  0
   54.6800   60.1700  117.7100 N   0  0  0  0  0  4  0  0  0  0  0  0
   54.8400   61.2700  116.8400 C   0  0  0  0  0  0  0  0  0  0  0  0
   53.5700   59.3900  117.3200 C   0  0  0  0  0  0  0  0  0  0  0  0
   54.4400   60.5900  118.6200 H   0  0  0  0  0  0  0  0  0  0  0  0
  2  1  1  1  0  0  0
  3  2  1  0  0  0  0
  4  3  1  0  0  0  0
  5  4  1  0  0  0  0
  5  6  2  0  0  0  0
  6  2  1  0  0  0  0
  7  4  1  0  0  0  0
  8  7  3  0  0  0  0
  9  8  1  0  0  0  0
 10  9  1  0  0  0  0
 10 13  1  0  0  0  0
 11 10  1  0  0  0  0
 12 10  1  0  0  0  0
M  END
$$$$
fraglig_797_min_6PQL_A_2.78003_rhidx
 OpenBabel03222603153D

 13 14  0  0  1  0  0  0  0  0999 V2000
   59.2600   59.1700  118.5800 C   0  0  0  0  0  0  0  0  0  0  0  0
   59.7400   58.0200  119.1300 C   0  0  0  0  0  0  0  0  0  0  0  0
   60.8100   57.9100  119.6600 C   0  0  0  0  0  0  0  0  0  0  0  0
   61.5900   58.8400  119.7500 C   0  0  0  0  0  0  0  0  0  0  0  0
   61.3400   59.9300  119.3200 C   0  0  0  0  0  0  0  0  0  0  0  0
   60.1900   60.2700  118.6900 C   0  0  0  0  0  0  0  0  0  0  0  0
   59.9400   62.2400  117.9600 I   0  0  0  0  0  0  0  0  0  0  0  0
   58.0000   59.2000  117.9700 N   0  0  0  0  0  0  0  0  0  0  0  0
   57.0700   60.1000  118.0000 C   0  0  0  0  0  0  0  0  0  0  0  0
   55.8000   59.9500  117.8900 C   0  0  1  0  0  0  0  0  0  0  0  0
   55.1500   60.7300  117.0500 C   0  0  0  0  0  0  0  0  0  0  0  0
   55.8900   58.5500  117.6900 N   0  0  0  0  0  0  0  0  0  0  0  0
   57.1300   58.1500  117.7900 N   0  0  0  0  0  0  0  0  0  0  0  0
  1  6  2  0  0  0  0
  1  2  1  0  0  0  0
  2  3  2  0  0  0  0
  3  4  1  0  0  0  0
  5  4  2  0  0  0  0
  6  5  1  0  0  0  0
  7  6  1  0  0  0  0
  8  9  1  0  0  0  0
  8  1  1  0  0  0  0
 10 11  1  6  0  0  0
 10  9  1  0  0  0  0
 12 13  2  0  0  0  0
 12 10  1  0  0  0  0
 13  8  1  0  0  0  0
M  END
$$$$
fraglig_168_min_6PQL_A_2.77241_rhidx
 OpenBabel03212608233D

  8  8  0  0  0  0  0  0  0  0999 V2000
   57.0400   59.4000  118.0700 N   0  0  0  0  0  0  0  0  0  0  0  0
   56.8100   60.7800  117.9800 C   0  0  0  0  0  0  0  0  0  0  0  0
   55.8400   61.4900  117.6600 N   0  0  0  0  0  0  0  0  0  0  0  0
   54.9100   60.7400  117.3500 C   0  0  0  0  0  0  0  0  0  0  0  0
   54.8000   59.5200  117.3100 C   0  0  0  0  0  0  0  0  0  0  0  0
   55.7900   58.9200  117.6400 C   0  0  0  0  0  0  0  0  0  0  0  0
   58.2200   58.8400  117.7300 C   0  0  0  0  0  0  0  0  0  0  0  0
   59.2500   58.3600  117.4600 O   0  0  0  0  0  0  0  0  0  0  0  0
  2  1  1  0  0  0  0
  3  2  1  0  0  0  0
  4  3  2  0  0  0  0
  5  4  1  0  0  0  0
  5  6  2  0  0  0  0
  6  1  1  0  0  0  0
  7  1  1  0  0  0  0
  8  7  1  0  0  0  0
M  END
$$$$
fraglig_572_min_6PQL_A_2.75019_rhidx
 OpenBabel03212620343D

 11 10  0  0  0  0  0  0  0  0999 V2000
   56.9600   58.9500  117.9000 C   0  0  0  0  0  0  0  0  0  0  0  0
   55.8800   59.4400  117.8800 C   0  0  0  0  0  0  0  0  0  0  0  0
   54.6500   60.0000  117.8700 N   0  0  0  0  0  0  0  0  0  0  0  0
   54.4000   61.3100  118.0900 C   0  0  0  0  0  0  0  0  0  0  0  0
   54.1700   62.4600  118.2900 C   0  0  0  0  0  0  0  0  0  0  0  0
   58.0600   58.4500  117.9400 C   0  0  0  0  0  0  0  0  0  0  0  0
   59.1400   57.9600  117.9700 C   0  0  0  0  0  0  0  0  0  0  0  0
   60.3100   57.3400  117.9400 O   0  0  0  0  0  0  0  0  0  0  0  0
   60.9900   57.4300  119.0600 C   0  0  0  0  0  0  0  0  0  0  0  0
   61.5900   57.5000  120.0700 O   0  0  0  0  0  0  0  0  0  0  0  0
   53.8600   59.3700  117.9400 H   0  0  0  0  0  0  0  0  0  0  0  0
  1  6  1  0  0  0  0
  2  1  3  0  0  0  0
  3  2  1  0  0  0  0
  3 11  1  0  0  0  0
  3  4  1  0  0  0  0
  4  5  3  0  0  0  0
  6  7  3  0  0  0  0
  8  7  1  0  0  0  0
  8  9  1  0  0  0  0
  9 10  1  0  0  0  0
M  END
$$$$
fraglig_742_min_6PQL_A_2.7182_rhidx
 OpenBabel03222601353D

  9  8  0  0  0  0  0  0  0  0999 V2000
   58.1100   59.6500  118.0000 C   0  0  0  0  0  0  0  0  0  0  0  0
   57.0000   60.0400  117.8900 C   0  0  0  0  0  0  0  0  0  0  0  0
   55.7600   60.4500  117.7600 C   0  0  0  0  0  0  0  0  0  0  0  0
   55.5700   61.6800  117.3600 C   0  0  0  0  0  0  0  0  0  0  0  0
   54.9000   59.5600  117.3400 C   0  0  0  0  0  0  0  0  0  0  0  0
   59.2300   59.2100  118.1000 C   0  0  0  0  0  0  0  0  0  0  0  0
   60.4100   58.6500  118.2200 O   0  0  0  0  0  0  0  0  0  0  0  0
   61.3300   59.4200  118.7700 C   0  0  0  0  0  0  0  0  0  0  0  0
   62.1600   60.0900  119.2400 O   0  0  0  0  0  0  0  0  0  0  0  0
  1  6  1  0  0  0  0
  2  1  3  0  0  0  0
  3  2  1  0  0  0  0
  4  3  2  0  0  0  0
  5  3  1  0  0  0  0
  6  7  1  0  0  0  0
  7  8  1  0  0  0  0
  8  9  1  0  0  0  0
M  END
$$$$
fraglig_16_min_6PQL_A_2.70155_rhidx
 OpenBabel03212608253D

 21 21  0  0  1  0  0  0  0  0999 V2000
   57.1800   58.6600  118.4600 C   0  0  1  0  0  0  0  0  0  0  0  0
   57.9600   57.6200  118.0300 N   0  0  0  0  0  0  0  0  0  0  0  0
   59.1900   57.4400  118.7800 C   0  0  0  0  0  0  0  0  0  0  0  0
   59.2900   58.7600  119.4500 N   0  0  0  0  0  0  0  0  0  0  0  0
   59.9000   58.7900  120.8000 C   0  0  0  0  0  0  0  0  0  0  0  0
   58.0100   59.3900  119.3100 N   0  0  0  0  0  0  0  0  0  0  0  0
   56.2800   59.4000  117.5000 C   0  0  0  0  0  0  0  0  0  0  0  0
   54.9800   60.1500  118.5800 S   0  0  0  0  0  0  0  0  0  0  0  0
   54.4400   61.5800  117.5500 C   0  0  0  0  0  0  0  0  0  0  0  0
   57.6100   56.9500  117.3500 H   0  0  0  0  0  0  0  0  0  0  0  0
   60.0700   57.2600  118.1400 H   0  0  0  0  0  0  0  0  0  0  0  0
   59.0600   56.6400  119.5200 H   0  0  0  0  0  0  0  0  0  0  0  0
   60.7000   58.0400  120.8900 H   0  0  0  0  0  0  0  0  0  0  0  0
   59.1600   58.6100  121.5900 H   0  0  0  0  0  0  0  0  0  0  0  0
   60.3700   59.7700  120.9800 H   0  0  0  0  0  0  0  0  0  0  0  0
   58.0000   60.3900  119.1200 H   0  0  0  0  0  0  0  0  0  0  0  0
   55.8300   58.7200  116.7600 H   0  0  0  0  0  0  0  0  0  0  0  0
   56.8400   60.1800  116.9700 H   0  0  0  0  0  0  0  0  0  0  0  0
   53.5700   62.0600  118.0100 H   0  0  0  0  0  0  0  0  0  0  0  0
   54.1600   61.2500  116.5400 H   0  0  0  0  0  0  0  0  0  0  0  0
   55.2600   62.3100  117.4800 H   0  0  0  0  0  0  0  0  0  0  0  0
  1  7  1  6  0  0  0
  1  6  1  0  0  0  0
  2  1  1  0  0  0  0
  2  3  1  0  0  0  0
  3  4  1  0  0  0  0
  3 12  1  0  0  0  0
  4  5  1  0  0  0  0
  5 13  1  0  0  0  0
  5 15  1  0  0  0  0
  5 14  1  0  0  0  0
  6  4  1  0  0  0  0
  7  8  1  0  0  0  0
  9 19  1  0  0  0  0
  9  8  1  0  0  0  0
 10  2  1  0  0  0  0
 11  3  1  0  0  0  0
 16  6  1  0  0  0  0
 17  7  1  0  0  0  0
 18  7  1  0  0  0  0
 20  9  1  0  0  0  0
 21  9  1  0  0  0  0
M  END
$$$$
fraglig_128_min_6PQL_A_2.69574_rhidx
 OpenBabel03212607143D

 11 10  0  0  0  0  0  0  0  0999 V2000
   57.2000   58.0200  118.0700 C   0  0  0  0  0  0  0  0  0  0  0  0
   58.2800   57.6600  118.4500 C   0  0  0  0  0  0  0  0  0  0  0  0
   55.9500   58.6400  117.6700 C   0  0  0  0  0  0  0  0  0  0  0  0
   54.8900   58.0600  117.8600 O   0  0  0  0  0  0  0  0  0  0  0  0
   56.0300   59.9800  117.4300 O   0  0  0  0  0  0  0  0  0  0  0  0
   55.0000   60.8000  117.5500 C   0  0  0  0  0  0  0  0  0  0  0  0
   54.1100   61.5800  117.7400 C   0  0  0  0  0  0  0  0  0  0  0  0
   59.6300   57.4000  118.9000 C   0  0  0  0  0  0  0  0  0  0  0  0
   60.3100   56.4600  118.5400 O   0  0  0  0  0  0  0  0  0  0  0  0
   60.2200   58.7300  119.9600 S   0  0  0  0  0  0  0  0  0  0  0  0
   61.8300   58.7400  119.4700 C   0  0  0  0  0  0  0  0  0  0  0  0
  1  2  3  0  0  0  0
  2  8  1  0  0  0  0
  3  4  2  0  0  0  0
  3  1  1  0  0  0  0
  5  6  1  0  0  0  0
  5  3  1  0  0  0  0
  6  7  3  0  0  0  0
  8 10  1  0  0  0  0
  9  8  2  0  0  0  0
 11 10  1  0  0  0  0
M  END
$$$$
fraglig_227_min_6PQL_A_2.69202_rhidx
 OpenBabel03212610063D

 11 12  0  0  1  0  0  0  0  0999 V2000
   59.3800   59.8700  119.4800 C   0  0  2  0  0  0  0  0  0  0  0  0
   59.5000   60.7900  118.5600 C   0  0  2  0  0  0  0  0  0  0  0  0
   60.4800   62.0100  117.9400 S   0  0  0  0  0  0  0  0  0  0  0  0
   61.0400   61.2100  119.3000 C   0  0  1  0  0  0  0  0  0  0  0  0
   60.7200   60.2000  120.2400 N   0  0  0  0  0  4  0  0  0  0  0  0
   59.1400   58.6500  119.0300 C   0  0  0  0  0  0  0  0  0  0  0  0
   58.9200   57.4500  118.5600 O   0  0  0  0  0  0  0  0  0  0  0  0
   59.9800   56.6700  118.6900 C   0  0  0  0  0  0  0  0  0  0  0  0
   60.9300   56.0100  118.8300 O   0  0  0  0  0  0  0  0  0  0  0  0
   60.6800   60.6700  121.1800 H   0  0  0  0  0  0  0  0  0  0  0  0
   61.4700   59.5000  120.3100 H   0  0  0  0  0  0  0  0  0  0  0  0
  1  6  1  6  0  0  0
  1  5  1  0  0  0  0
  2  3  1  6  0  0  0
  2  4  1  0  0  0  0
  2  1  1  0  0  0  0
  4  3  1  1  0  0  0
  4  5  1  0  0  0  0
  5 11  1  0  0  0  0
  5 10  1  0  0  0  0
  7  8  1  0  0  0  0
  7  6  1  0  0  0  0
  8  9  1  0  0  0  0
M  END
$$$$
fraglig_886_min_6PQL_A_2.67357_rhidx
 OpenBabel03222605523D

 13 14  0  0  1  0  0  0  0  0999 V2000
   56.9100   59.6400  117.5700 C   0  0  0  0  0  0  0  0  0  0  0  0
   55.9100   58.7400  117.3900 C   0  0  0  0  0  0  0  0  0  0  0  0
   54.7000   58.8600  117.3400 C   0  0  0  0  0  0  0  0  0  0  0  0
   54.2800   59.9800  117.4700 C   0  0  0  0  0  0  0  0  0  0  0  0
   54.8800   61.1800  117.6900 C   0  0  0  0  0  0  0  0  0  0  0  0
   54.1500   62.4200  118.9300 B   0  0  0  0  0  0  0  0  0  0  0  0
   56.1900   60.7800  117.7200 C   0  0  0  0  0  0  0  0  0  0  0  0
   58.1000   59.3500  118.2500 N   0  0  0  0  0  0  0  0  0  0  0  0
   59.1700   60.0700  118.3200 C   0  0  0  0  0  0  0  0  0  0  0  0
   60.4000   59.7400  118.3200 C   0  0  1  0  0  0  0  0  0  0  0  0
   61.1800   60.2100  119.2700 C   0  0  0  0  0  0  0  0  0  0  0  0
   60.1000   58.3500  118.2200 N   0  0  0  0  0  0  0  0  0  0  0  0
   58.8000   58.1800  118.1300 N   0  0  0  0  0  0  0  0  0  0  0  0
  1  7  1  0  0  0  0
  1  8  1  0  0  0  0
  2  1  2  0  0  0  0
  3  2  1  0  0  0  0
  3  4  2  0  0  0  0
  4  5  1  0  0  0  0
  5  7  2  0  0  0  0
  5  6  1  0  0  0  0
  8  9  1  0  0  0  0
  9 10  1  0  0  0  0
 10 11  1  1  0  0  0
 12 10  1  0  0  0  0
 13 12  2  0  0  0  0
 13  8  1  0  0  0  0
M  END
$$$$
fraglig_522_min_6PQL_A_2.66015_rhidx
 OpenBabel03212619033D

  9  8  0  0  0  0  0  0  0  0999 V2000
   56.2300   60.1900  117.8100 C   0  0  0  0  0  0  0  0  0  0  0  0
   57.1900   59.5100  118.0400 C   0  0  0  0  0  0  0  0  0  0  0  0
   58.1700   58.9100  118.4500 C   0  0  0  0  0  0  0  0  0  0  0  0
   59.2100   58.4000  119.0700 O   0  0  0  0  0  0  0  0  0  0  0  0
   59.8800   57.4600  118.4500 C   0  0  0  0  0  0  0  0  0  0  0  0
   60.4900   56.6100  117.9200 O   0  0  0  0  0  0  0  0  0  0  0  0
   55.2800   60.9500  117.7500 C   0  0  0  0  0  0  0  0  0  0  0  0
   54.3800   61.7300  117.8000 C   0  0  0  0  0  0  0  0  0  0  0  0
   53.4800   62.5200  117.8800 C   0  0  0  0  0  0  0  0  0  0  0  0
  1  2  3  0  0  0  0
  2  3  1  0  0  0  0
  3  4  1  0  0  0  0
  5  4  1  0  0  0  0
  6  5  1  0  0  0  0
  7  8  3  0  0  0  0
  7  1  1  0  0  0  0
  8  9  1  0  0  0  0
M  END
$$$$
fraglig_708_min_6PQL_A_2.62153_rhidx
 OpenBabel03222600353D

 21 21  0  0  0  0  0  0  0  0999 V2000
   58.1600   59.3000  117.8000 N   0  0  0  0  0  0  0  0  0  0  0  0
   57.4200   60.4600  117.7600 C   0  0  0  0  0  0  0  0  0  0  0  0
   56.1500   60.0200  117.5200 C   0  0  0  0  0  0  0  0  0  0  0  0
   54.9300   60.8800  117.4500 C   0  0  0  0  0  0  0  0  0  0  0  0
   56.1400   58.6600  117.4400 N   0  0  0  0  0  0  0  0  0  0  0  0
   57.3600   58.2200  117.5900 N   0  0  0  0  0  0  0  0  0  0  0  0
   59.5800   59.1400  118.1400 C   0  0  0  0  0  0  0  0  0  0  0  0
   59.9300   57.7500  118.7100 C   0  0  0  0  0  0  0  0  0  0  0  0
   61.3600   57.8200  119.8700 S   0  0  0  0  0  0  0  0  0  0  0  0
   60.5600   58.6200  121.3200 C   0  0  0  0  0  0  0  0  0  0  0  0
   57.8200   61.4500  117.9000 H   0  0  0  0  0  0  0  0  0  0  0  0
   55.1700   61.9400  117.5600 H   0  0  0  0  0  0  0  0  0  0  0  0
   54.2200   60.6100  118.2500 H   0  0  0  0  0  0  0  0  0  0  0  0
   54.4100   60.7400  116.5000 H   0  0  0  0  0  0  0  0  0  0  0  0
   59.8300   59.9100  118.8800 H   0  0  0  0  0  0  0  0  0  0  0  0
   60.1900   59.3400  117.2500 H   0  0  0  0  0  0  0  0  0  0  0  0
   60.1700   57.0700  117.8800 H   0  0  0  0  0  0  0  0  0  0  0  0
   59.0800   57.3300  119.2600 H   0  0  0  0  0  0  0  0  0  0  0  0
   61.2600   58.6700  122.1600 H   0  0  0  0  0  0  0  0  0  0  0  0
   59.6800   58.0400  121.6200 H   0  0  0  0  0  0  0  0  0  0  0  0
   60.2400   59.6400  121.0700 H   0  0  0  0  0  0  0  0  0  0  0  0
  1  7  1  0  0  0  0
  2  1  1  0  0  0  0
  2 11  1  0  0  0  0
  3  2  2  0  0  0  0
  4  3  1  0  0  0  0
  4 12  1  0  0  0  0
  4 13  1  0  0  0  0
  5  3  1  0  0  0  0
  5  6  2  0  0  0  0
  6  1  1  0  0  0  0
  7  8  1  0  0  0  0
  7 15  1  0  0  0  0
  8 18  1  0  0  0  0
  8  9  1  0  0  0  0
  9 10  1  0  0  0  0
 10 20  1  0  0  0  0
 10 19  1  0  0  0  0
 14  4  1  0  0  0  0
 16  7  1  0  0  0  0
 17  8  1  0  0  0  0
 21 10  1  0  0  0  0
M  END
$$$$
fraglig_309_min_6PQL_A_2.6158_rhidx
 OpenBabel03212612363D

 11 11  0  0  0  0  0  0  0  0999 V2000
   56.9700   58.7600  118.3100 C   0  0  0  0  0  0  0  0  0  0  0  0
   58.0800   57.9900  118.3700 C   0  0  0  0  0  0  0  0  0  0  0  0
   59.4800   58.1700  118.3600 N   0  0  0  0  0  0  0  0  0  0  0  0
   59.5300   59.5500  118.2100 C   0  0  0  0  0  0  0  0  0  0  0  0
   58.6700   60.4000  118.1300 C   0  0  0  0  0  0  0  0  0  0  0  0
   57.5400   59.9900  118.1700 C   0  0  0  0  0  0  0  0  0  0  0  0
   55.9200   58.3700  117.5000 N   0  0  0  0  0  0  0  0  0  0  0  0
   60.2800   57.5300  119.2300 C   0  0  0  0  0  0  0  0  0  0  0  0
   60.9700   56.9700  119.9900 O   0  0  0  0  0  0  0  0  0  0  0  0
   55.5200   59.0900  116.9200 H   0  0  0  0  0  0  0  0  0  0  0  0
   56.0000   57.4400  117.0700 H   0  0  0  0  0  0  0  0  0  0  0  0
  1  2  1  0  0  0  0
  3  2  1  0  0  0  0
  3  8  1  0  0  0  0
  4  3  1  0  0  0  0
  5  6  1  0  0  0  0
  5  4  2  0  0  0  0
  6  1  2  0  0  0  0
  7  1  1  0  0  0  0
  8  9  1  0  0  0  0
 10  7  1  0  0  0  0
 11  7  1  0  0  0  0
M  END
$$$$
fraglig_35_min_6PQL_A_2.61488_rhidx
 OpenBabel03212614043D

  8  7  0  0  1  0  0  0  0  0999 V2000
   56.8900   60.1000  117.8400 C   0  0  0  0  0  0  0  0  0  0  0  0
   55.6100   60.2600  117.6000 C   0  0  1  0  0  0  0  0  0  0  0  0
   54.6400   58.8800  117.0800 C   0  0  0  0  0  0  0  0  0  0  0  0
   58.1700   59.9100  118.0900 O   0  0  0  0  0  0  0  0  0  0  0  0
   58.9400   60.9900  118.0500 C   0  0  0  0  0  0  0  0  0  0  0  0
   59.6200   61.9400  118.0100 O   0  0  0  0  0  0  0  0  0  0  0  0
   55.0100   61.3000  118.1400 C   0  0  0  0  0  0  0  0  0  0  0  0
   54.2500   62.5500  118.8700 C   0  0  0  0  0  0  0  0  0  0  0  0
  1  4  1  0  0  0  0
  2  3  1  1  0  0  0
  2  1  1  0  0  0  0
  2  7  1  0  0  0  0
  5  4  1  0  0  0  0
  6  5  1  0  0  0  0
  7  8  1  0  0  0  0
M  END
$$$$
fraglig_28_min_6PQL_A_2.6109_rhidx
 OpenBabel03212611593D

 11 10  0  0  0  0  0  0  0  0999 V2000
   58.6100   59.2000  118.2900 C   0  0  0  0  0  0  0  0  0  0  0  0
   57.5200   59.5300  117.9300 C   0  0  0  0  0  0  0  0  0  0  0  0
   56.3500   60.0100  117.5500 C   0  0  0  0  0  0  0  0  0  0  0  0
   56.2300   61.3100  117.4500 C   0  0  0  0  0  0  0  0  0  0  0  0
   55.2600   59.2800  117.6300 C   0  0  0  0  0  0  0  0  0  0  0  0
   54.2600   58.6200  117.6800 C   0  0  0  0  0  0  0  0  0  0  0  0
   59.7300   58.9700  118.6500 C   0  0  0  0  0  0  0  0  0  0  0  0
   60.9900   58.8400  119.0700 N   0  0  0  0  0  0  0  0  0  0  0  0
   61.8200   59.8800  118.8900 C   0  0  0  0  0  0  0  0  0  0  0  0
   62.5300   60.7900  118.7500 O   0  0  0  0  0  0  0  0  0  0  0  0
   61.0600   58.5200  120.0200 H   0  0  0  0  0  0  0  0  0  0  0  0
  1  7  1  0  0  0  0
  2  1  3  0  0  0  0
  3  5  1  0  0  0  0
  3  2  1  0  0  0  0
  4  3  2  0  0  0  0
  5  6  3  0  0  0  0
  7  8  1  0  0  0  0
  8 11  1  0  0  0  0
  9  8  1  0  0  0  0
 10  9  1  0  0  0  0
M  END
$$$$
fraglig_270_min_6PQL_A_2.60745_rhidx
 OpenBabel03212611223D

 15 17  0  0  1  0  0  0  0  0999 V2000
   58.1200   59.3400  118.4400 C   0  0  2  0  0  0  0  0  0  0  0  0
   57.3200   58.5000  117.8600 C   0  0  1  0  0  0  0  0  0  0  0  0
   56.0600   58.7500  118.0800 C   0  0  2  0  0  0  0  0  0  0  0  0
   55.2400   59.3600  117.2100 C   0  0  0  0  0  0  0  0  0  0  0  0
   55.0500   60.5400  117.0500 C   0  0  0  0  0  0  0  0  0  0  0  0
   55.6400   61.3900  117.6500 C   0  0  0  0  0  0  0  0  0  0  0  0
   56.5000   61.1500  118.4700 C   0  0  0  0  0  0  0  0  0  0  0  0
   56.9200   59.9000  118.7900 C   0  0  1  0  0  0  0  0  0  0  0  0
   59.1600   59.9800  117.8200 O   0  0  0  0  0  0  0  0  0  0  0  0
   60.2800   60.1700  118.5900 C   0  0  0  0  0  0  0  0  0  0  0  0
   61.1200   61.1000  118.2200 C   0  0  0  0  0  0  0  0  0  0  0  0
   60.7600   59.1500  119.2700 C   0  0  0  0  0  0  0  0  0  0  0  0
   61.2800   57.7800  120.0900 S   0  0  0  0  0  0  0  0  0  0  0  0
   60.7600   56.7100  118.9000 C   0  0  0  0  0  0  0  0  0  0  0  0
   60.4000   55.9600  118.0800 O   0  0  0  0  0  0  0  0  0  0  0  0
  1  9  1  6  0  0  0
  1  8  1  0  0  0  0
  2  3  1  0  0  0  0
  2  1  1  0  0  0  0
  2  8  1  0  0  0  0
  3  8  1  0  0  0  0
  4  3  1  0  0  0  0
  5  4  1  0  0  0  0
  5  6  2  0  0  0  0
  6  7  1  0  0  0  0
  7  8  1  0  0  0  0
  9 10  1  0  0  0  0
 10 12  1  0  0  0  0
 11 10  2  0  0  0  0
 12 13  1  0  0  0  0
 14 13  1  0  0  0  0
 15 14  1  0  0  0  0
M  END
$$$$
fraglig_122_min_6PQL_A_2.59977_rhidx
 OpenBabel03212607053D

 25 24  0  0  0  0  0  0  0  0999 V2000
   56.3600   59.5100  118.3800 O   0  0  0  0  0  0  0  0  0  0  0  0
   57.6500   59.7000  117.7800 C   0  0  0  0  0  0  0  0  0  0  0  0
   58.7400   59.5100  118.8500 C   0  0  0  0  0  0  0  0  0  0  0  0
   60.1500   59.5000  118.2200 C   0  0  0  0  0  0  0  0  0  0  0  0
   61.4700   59.8100  119.4700 S   0  0  0  0  0  0  0  0  0  0  0  0
   61.2400   58.2900  120.4700 C   0  0  0  0  0  0  0  0  0  0  0  0
   55.2600   59.7100  117.4700 C   0  0  0  0  0  0  0  0  0  0  0  0
   54.9900   61.2300  117.4400 C   0  0  0  0  0  0  0  0  0  0  0  0
   53.5600   61.6300  117.8100 N   0  0  0  0  0  4  0  0  0  0  0  0
   57.7300   60.7100  117.3500 H   0  0  0  0  0  0  0  0  0  0  0  0
   57.7900   58.9700  116.9700 H   0  0  0  0  0  0  0  0  0  0  0  0
   58.5600   58.5700  119.3800 H   0  0  0  0  0  0  0  0  0  0  0  0
   58.6600   60.3200  119.5800 H   0  0  0  0  0  0  0  0  0  0  0  0
   60.2200   60.2700  117.4400 H   0  0  0  0  0  0  0  0  0  0  0  0
   60.3300   58.5200  117.7500 H   0  0  0  0  0  0  0  0  0  0  0  0
   62.0500   58.2400  121.2100 H   0  0  0  0  0  0  0  0  0  0  0  0
   61.2800   57.4000  119.8300 H   0  0  0  0  0  0  0  0  0  0  0  0
   60.2800   58.3500  121.0000 H   0  0  0  0  0  0  0  0  0  0  0  0
   55.5100   59.3300  116.4700 H   0  0  0  0  0  0  0  0  0  0  0  0
   54.3800   59.1600  117.8300 H   0  0  0  0  0  0  0  0  0  0  0  0
   55.2300   61.6300  116.4600 H   0  0  0  0  0  0  0  0  0  0  0  0
   55.6600   61.6900  118.1700 H   0  0  0  0  0  0  0  0  0  0  0  0
   52.8700   61.4500  117.0200 H   0  0  0  0  0  0  0  0  0  0  0  0
   53.4600   62.6400  117.9500 H   0  0  0  0  0  0  0  0  0  0  0  0
   53.1800   61.1200  118.6100 H   0  0  0  0  0  0  0  0  0  0  0  0
  2  1  1  0  0  0  0
  2  3  1  0  0  0  0
  3 12  1  0  0  0  0
  3 13  1  0  0  0  0
  4  3  1  0  0  0  0
  4  5  1  0  0  0  0
  5  6  1  0  0  0  0
  6 18  1  0  0  0  0
  6 16  1  0  0  0  0
  7 20  1  0  0  0  0
  7  1  1  0  0  0  0
  8  7  1  0  0  0  0
  8  9  1  0  0  0  0
  8 22  1  0  0  0  0
  9 24  1  0  0  0  0
  9 25  1  0  0  0  0
 10  2  1  0  0  0  0
 11  2  1  0  0  0  0
 14  4  1  0  0  0  0
 15  4  1  0  0  0  0
 17  6  1  0  0  0  0
 19  7  1  0  0  0  0
 21  8  1  0  0  0  0
 23  9  1  0  0  0  0
M  END
$$$$
fraglig_450_min_6PQL_A_2.59934_rhidx
 OpenBabel03212616483D

  9  8  0  0  0  0  0  0  0  0999 V2000
   58.3000   59.8300  118.3900 C   0  0  0  0  0  0  0  0  0  0  0  0
   59.4700   59.6000  118.5600 C   0  0  0  0  0  0  0  0  0  0  0  0
   60.9200   59.4300  118.6700 C   0  0  0  0  0  0  0  0  0  0  0  0
   61.6800   60.2400  118.1700 O   0  0  0  0  0  0  0  0  0  0  0  0
   61.5200   58.1900  119.8300 S   0  0  0  0  0  0  0  0  0  0  0  0
   60.8000   58.8100  121.2200 C   0  0  0  0  0  0  0  0  0  0  0  0
   57.1700   60.1400  118.1600 C   0  0  0  0  0  0  0  0  0  0  0  0
   56.0600   60.5200  117.9100 C   0  0  0  0  0  0  0  0  0  0  0  0
   54.9700   60.9300  117.6300 C   0  0  0  0  0  0  0  0  0  0  0  0
  1  2  1  0  0  0  0
  2  3  1  0  0  0  0
  3  5  1  0  0  0  0
  4  3  2  0  0  0  0
  5  6  1  0  0  0  0
  7  1  3  0  0  0  0
  8  7  1  0  0  0  0
  9  8  3  0  0  0  0
M  END
$$$$
fraglig_354_min_6PQL_A_2.59506_rhidx
 OpenBabel03212613553D

 11 11  0  0  0  0  0  0  0  0999 V2000
   55.9700   59.5400  116.9000 C   0  0  0  0  0  0  0  0  0  0  0  0
   56.4400   60.7600  117.2700 C   0  0  0  0  0  0  0  0  0  0  0  0
   57.5500   61.0600  117.7200 C   0  0  0  0  0  0  0  0  0  0  0  0
   58.6000   60.2300  117.9800 C   0  0  0  0  0  0  0  0  0  0  0  0
   58.1300   59.0000  117.6100 C   0  0  0  0  0  0  0  0  0  0  0  0
   57.0200   58.7100  117.1700 C   0  0  0  0  0  0  0  0  0  0  0  0
   60.2900   60.6800  117.6500 S   0  0  0  0  0  0  0  0  0  0  0  0
   60.2300   62.3300  117.9700 C   0  0  0  0  0  0  0  0  0  0  0  0
   60.2200   63.4800  118.2100 O   0  0  0  0  0  0  0  0  0  0  0  0
   54.7600   59.2000  117.3100 C   0  0  0  0  0  0  0  0  0  0  0  0
   53.6600   58.9200  117.6700 C   0  0  0  0  0  0  0  0  0  0  0  0
  1  6  2  0  0  0  0
  1  2  1  0  0  0  0
  1 10  1  0  0  0  0
  2  3  2  0  0  0  0
  3  4  1  0  0  0  0
  5  4  2  0  0  0  0
  6  5  1  0  0  0  0
  7  8  1  0  0  0  0
  7  4  1  0  0  0  0
  8  9  1  0  0  0  0
 10 11  3  0  0  0  0
M  END
$$$$
fraglig_140_min_6PQL_A_2.59401_rhidx
 OpenBabel03212607343D

 24 23  0  0  1  0  0  0  0  0999 V2000
   59.3600   58.5900  119.2800 N   0  0  0  0  0  0  0  0  0  0  0  0
   60.0200   57.5900  119.1200 C   0  0  0  0  0  0  0  0  0  0  0  0
   60.7800   56.2200  118.8100 S   0  0  0  0  0  0  0  0  0  0  0  0
   58.8000   59.8200  118.7700 C   0  0  2  0  0  0  0  0  0  0  0  0
   57.4800   59.5000  118.0000 C   0  0  0  0  0  0  0  0  0  0  0  0
   56.5900   60.6700  117.7600 N   0  0  0  0  0  0  0  0  0  0  0  0
   55.2100   60.5700  117.5300 C   0  0  0  0  0  0  0  0  0  0  0  0
   54.5200   59.0400  117.5100 S   0  0  0  0  0  0  0  0  0  0  0  0
   54.0700   62.1300  117.3400 S   0  0  0  0  0  0  0  0  0  0  0  0
   53.4200   62.5100  118.9900 C   0  0  0  0  0  0  0  0  0  0  0  0
   59.6900   60.4500  117.8500 O   0  0  0  0  0  0  0  0  0  0  0  0
   60.7700   61.1000  118.3600 C   0  0  0  0  0  0  0  0  0  0  0  0
   60.6700   62.5700  117.9700 C   0  0  0  0  0  0  0  0  0  0  0  0
   61.8100   60.5700  118.6900 O   0  0  0  0  0  0  0  0  0  0  0  0
   58.5800   60.5100  119.6000 H   0  0  0  0  0  0  0  0  0  0  0  0
   56.9500   58.7300  118.5800 H   0  0  0  0  0  0  0  0  0  0  0  0
   57.7500   59.0400  117.0400 H   0  0  0  0  0  0  0  0  0  0  0  0
   57.0200   61.5800  117.7000 H   0  0  0  0  0  0  0  0  0  0  0  0
   53.0700   61.2700  116.9000 H   0  0  0  0  0  0  0  0  0  0  0  0
   53.9600   62.0900  119.8300 H   0  0  0  0  0  0  0  0  0  0  0  0
   52.3400   62.6300  119.0100 H   0  0  0  0  0  0  0  0  0  0  0  0
   59.6800   62.7800  117.5500 H   0  0  0  0  0  0  0  0  0  0  0  0
   61.4300   62.7900  117.2200 H   0  0  0  0  0  0  0  0  0  0  0  0
   60.8100   63.1900  118.8600 H   0  0  0  0  0  0  0  0  0  0  0  0
  2  1  2  0  0  0  0
  3  2  2  0  0  0  0
  4  1  1  0  0  0  0
  4 15  1  1  0  0  0
  5 16  1  0  0  0  0
  5  4  1  0  0  0  0
  6  5  1  0  0  0  0
  7  6  1  0  0  0  0
  8  7  2  0  0  0  0
  9  7  1  0  0  0  0
  9 10  1  0  0  0  0
 10 21  1  0  0  0  0
 10 20  1  0  0  0  0
 11 12  1  0  0  0  0
 11  4  1  0  0  0  0
 12 14  2  0  0  0  0
 13 12  1  0  0  0  0
 13 24  1  0  0  0  0
 17  5  1  0  0  0  0
 18  6  1  0  0  0  0
 19  9  1  0  0  0  0
 22 13  1  0  0  0  0
 23 13  1  0  0  0  0
M  END
$$$$
fraglig_563_min_6PQL_A_2.58806_rhidx
 OpenBabel03212620213D

 23 22  0  0  0  0  0  0  0  0999 V2000
   58.3200   58.5200  117.3900 O   0  0  0  0  0  0  0  0  0  0  0  0
   57.4100   59.4800  117.9500 C   0  0  0  0  0  0  0  0  0  0  0  0
   56.0400   59.1700  117.3300 C   0  0  0  0  0  0  0  0  0  0  0  0
   54.6500   60.0500  118.1100 S   0  0  0  0  0  0  0  0  0  0  0  0
   55.1000   61.8100  117.8400 C   0  0  0  0  0  0  0  0  0  0  0  0
   59.7000   58.6800  117.7400 C   0  0  0  0  0  0  0  0  0  0  0  0
   60.0600   57.6900  118.8700 C   0  0  0  0  0  0  0  0  0  0  0  0
   61.1100   58.2600  119.8300 C   0  0  0  0  0  0  0  0  0  0  0  0
   62.3100   58.5800  119.1200 O   0  0  0  0  0  0  0  0  0  0  0  0
   57.7300   60.5000  117.6800 H   0  0  0  0  0  0  0  0  0  0  0  0
   57.3800   59.3900  119.0400 H   0  0  0  0  0  0  0  0  0  0  0  0
   55.8500   58.1000  117.3900 H   0  0  0  0  0  0  0  0  0  0  0  0
   56.0600   59.4600  116.2800 H   0  0  0  0  0  0  0  0  0  0  0  0
   54.3500   62.4600  118.2900 H   0  0  0  0  0  0  0  0  0  0  0  0
   55.1300   62.0000  116.7600 H   0  0  0  0  0  0  0  0  0  0  0  0
   56.0900   62.0400  118.2800 H   0  0  0  0  0  0  0  0  0  0  0  0
   59.9100   59.7200  118.0400 H   0  0  0  0  0  0  0  0  0  0  0  0
   60.3200   58.4600  116.8600 H   0  0  0  0  0  0  0  0  0  0  0  0
   60.4200   56.7500  118.4300 H   0  0  0  0  0  0  0  0  0  0  0  0
   59.1500   57.4400  119.4400 H   0  0  0  0  0  0  0  0  0  0  0  0
   61.3200   57.5300  120.6100 H   0  0  0  0  0  0  0  0  0  0  0  0
   60.7200   59.1600  120.3100 H   0  0  0  0  0  0  0  0  0  0  0  0
   62.5200   57.8500  118.5000 H   0  0  0  0  0  0  0  0  0  0  0  0
  1  6  1  0  0  0  0
  1  2  1  0  0  0  0
  2 11  1  0  0  0  0
  3 12  1  0  0  0  0
  3  2  1  0  0  0  0
  3  4  1  0  0  0  0
  5  4  1  0  0  0  0
  5 16  1  0  0  0  0
  5 14  1  0  0  0  0
  6 17  1  0  0  0  0
  6  7  1  0  0  0  0
  7 20  1  0  0  0  0
  7  8  1  0  0  0  0
  8 22  1  0  0  0  0
  8 21  1  0  0  0  0
  9  8  1  0  0  0  0
 10  2  1  0  0  0  0
 13  3  1  0  0  0  0
 15  5  1  0  0  0  0
 18  6  1  0  0  0  0
 19  7  1  0  0  0  0
 23  9  1  0  0  0  0
M  END
$$$$
fraglig_151_min_6PQL_A_2.58627_rhidx
 OpenBabel03212607543D

 11 11  0  0  0  0  0  0  0  0999 V2000
   57.8100   59.2300  117.9400 C   0  0  0  0  0  0  0  0  0  0  0  0
   58.7200   58.6200  118.4200 C   0  0  0  0  0  0  0  0  0  0  0  0
   59.8300   57.8700  119.0100 C   0  0  0  0  0  0  0  0  0  0  0  0
   60.0300   56.7000  118.7300 O   0  0  0  0  0  0  0  0  0  0  0  0
   61.1400   58.9300  119.6300 S   0  0  0  0  0  0  0  0  0  0  0  0
   60.9600   58.6900  121.2900 C   0  0  0  0  0  0  0  0  0  0  0  0
   56.8000   59.9200  117.3800 N   0  0  0  0  0  0  0  0  0  0  0  0
   55.5000   59.4500  117.3500 C   0  0  0  0  0  0  0  0  0  0  0  0
   54.4400   59.9000  117.7100 N   0  0  0  0  0  0  0  0  0  0  0  0
   54.9900   60.9000  118.0600 C   0  0  0  0  0  0  0  0  0  0  0  0
   56.1700   60.9700  117.9300 C   0  0  0  0  0  0  0  0  0  0  0  0
  1  2  3  0  0  0  0
  2  3  1  0  0  0  0
  3  5  1  0  0  0  0
  4  3  2  0  0  0  0
  5  6  1  0  0  0  0
  7 11  1  0  0  0  0
  7  1  1  0  0  0  0
  8  7  1  0  0  0  0
  8  9  1  0  0  0  0
  9 10  2  0  0  0  0
 11 10  1  0  0  0  0
M  END
$$$$
fraglig_57_min_6PQL_A_2.58299_rhidx
 OpenBabel03212620483D

 20 19  0  0  1  0  0  0  0  0999 V2000
   56.2900   59.7500  117.6100 C   0  0  0  0  0  0  0  0  0  0  0  0
   57.4600   59.5500  117.8300 C   0  0  0  0  0  0  0  0  0  0  0  0
   54.8600   60.0600  117.4000 C   0  0  2  0  0  0  0  0  0  0  0  0
   54.6000   61.5800  117.3700 C   0  0  0  0  0  0  0  0  0  0  0  0
   54.3100   62.2400  118.7400 C   0  0  0  0  0  0  0  0  0  0  0  0
   54.1200   59.4300  118.4500 O   0  0  0  0  0  0  0  0  0  0  0  0
   58.8500   59.3400  118.1900 C   0  0  0  0  0  0  0  0  0  0  0  0
   59.5700   60.3000  118.4000 O   0  0  0  0  0  0  0  0  0  0  0  0
   59.1000   57.7500  119.0000 S   0  0  0  0  0  0  0  0  0  0  0  0
   60.2000   58.2700  120.3800 C   0  0  0  0  0  0  0  0  0  0  0  0
   54.5700   59.6300  116.4300 H   0  0  0  0  0  0  0  0  0  0  0  0
   53.7500   61.7700  116.7000 H   0  0  0  0  0  0  0  0  0  0  0  0
   55.4500   62.0900  116.9100 H   0  0  0  0  0  0  0  0  0  0  0  0
   53.3800   61.8400  119.1700 H   0  0  0  0  0  0  0  0  0  0  0  0
   54.1700   63.3200  118.6200 H   0  0  0  0  0  0  0  0  0  0  0  0
   55.1300   62.0800  119.4400 H   0  0  0  0  0  0  0  0  0  0  0  0
   54.6900   59.5300  119.2400 H   0  0  0  0  0  0  0  0  0  0  0  0
   60.4900   57.4000  120.9700 H   0  0  0  0  0  0  0  0  0  0  0  0
   59.6600   58.9800  121.0200 H   0  0  0  0  0  0  0  0  0  0  0  0
   61.1000   58.7700  119.9900 H   0  0  0  0  0  0  0  0  0  0  0  0
  1  2  3  0  0  0  0
  2  7  1  0  0  0  0
  3 11  1  6  0  0  0
  3  1  1  0  0  0  0
  3  6  1  0  0  0  0
  4  3  1  0  0  0  0
  4  5  1  0  0  0  0
  5 14  1  0  0  0  0
  5 16  1  0  0  0  0
  6 17  1  0  0  0  0
  7  8  2  0  0  0  0
  7  9  1  0  0  0  0
  9 10  1  0  0  0  0
 10 18  1  0  0  0  0
 10 19  1  0  0  0  0
 12  4  1  0  0  0  0
 13  4  1  0  0  0  0
 15  5  1  0  0  0  0
 20 10  1  0  0  0  0
M  END
$$$$
fraglig_864_min_6PQL_A_2.57211_rhidx
 OpenBabel03222605133D

  9  9  0  0  1  0  0  0  0  0999 V2000
   60.9900   59.8900  118.2800 C   0  0  0  0  0  0  0  0  0  0  0  0
   59.7700   59.5500  118.6300 C   0  0  1  0  0  0  0  0  0  0  0  0
   58.8100   59.8800  117.8600 C   0  0  0  0  0  0  0  0  0  0  0  0
   57.8100   59.1900  117.4200 N   0  0  0  0  0  0  0  0  0  0  0  0
   58.1700   58.0700  118.1300 N   0  0  0  0  0  0  0  0  0  0  0  0
   59.3200   58.2100  118.7400 N   0  0  0  0  0  0  0  0  0  0  0  0
   56.5700   59.6800  117.5400 C   0  0  0  0  0  0  0  0  0  0  0  0
   55.4800   60.1800  117.6900 C   0  0  0  0  0  0  0  0  0  0  0  0
   53.9000   60.9500  117.9800 B   0  0  0  0  0  0  0  0  0  0  0  0
  2  1  1  6  0  0  0
  2  6  1  0  0  0  0
  3  2  1  0  0  0  0
  4  7  1  0  0  0  0
  4  3  1  0  0  0  0
  4  5  1  0  0  0  0
  5  6  2  0  0  0  0
  7  8  3  0  0  0  0
  8  9  1  0  0  0  0
M  END
$$$$
fraglig_271_min_6PQL_A_2.5712_rhidx
 OpenBabel03212611243D

 24 24  0  0  1  0  0  0  0  0999 V2000
   60.3300   60.1000  118.3300 C   0  0  0  0  0  0  0  0  0  0  0  0
   60.4100   58.5900  118.2100 C   0  0  0  0  0  0  0  0  0  0  0  0
   60.1900   58.0300  117.1600 O   0  0  0  0  0  0  0  0  0  0  0  0
   60.7700   57.6300  119.7100 S   0  0  0  0  0  0  0  0  0  0  0  0
   60.0900   58.6200  121.1200 C   0  0  0  0  0  0  0  0  0  0  0  0
   58.9300   60.7100  118.1000 C   0  0  0  0  0  0  0  0  0  0  0  0
   57.7100   59.9200  118.5700 N   0  0  0  0  0  4  0  0  0  0  0  0
   56.7100   59.6500  117.4700 C   0  0  1  0  0  0  0  0  0  0  0  0
   57.3400   58.4900  118.1800 C   0  0  0  0  0  0  0  0  0  0  0  0
   55.3100   60.1500  117.7900 C   0  0  0  0  0  0  0  0  0  0  0  0
   60.9900   60.5000  117.5400 H   0  0  0  0  0  0  0  0  0  0  0  0
   60.7800   60.4500  119.2600 H   0  0  0  0  0  0  0  0  0  0  0  0
   60.4100   58.1600  122.0600 H   0  0  0  0  0  0  0  0  0  0  0  0
   59.0000   58.5900  121.0600 H   0  0  0  0  0  0  0  0  0  0  0  0
   60.4400   59.6600  121.1200 H   0  0  0  0  0  0  0  0  0  0  0  0
   58.7900   60.8800  117.0300 H   0  0  0  0  0  0  0  0  0  0  0  0
   58.8900   61.6900  118.5900 H   0  0  0  0  0  0  0  0  0  0  0  0
   57.2800   60.2800  119.4400 H   0  0  0  0  0  0  0  0  0  0  0  0
   57.0500   59.8700  116.4500 H   0  0  0  0  0  0  0  0  0  0  0  0
   58.0700   57.9000  117.6200 H   0  0  0  0  0  0  0  0  0  0  0  0
   56.7400   57.9100  118.8800 H   0  0  0  0  0  0  0  0  0  0  0  0
   55.0600   60.0500  118.8500 H   0  0  0  0  0  0  0  0  0  0  0  0
   54.5700   59.5900  117.2100 H   0  0  0  0  0  0  0  0  0  0  0  0
   55.2100   61.2100  117.5100 H   0  0  0  0  0  0  0  0  0  0  0  0
  1 12  1  0  0  0  0
  2  1  1  0  0  0  0
  2  4  1  0  0  0  0
  3  2  2  0  0  0  0
  4  5  1  0  0  0  0
  5 13  1  0  0  0  0
  6  1  1  0  0  0  0
  6  7  1  0  0  0  0
  6 17  1  0  0  0  0
  7 18  1  0  0  0  0
  8 19  1  6  0  0  0
  8 10  1  0  0  0  0
  8  9  1  0  0  0  0
  8  7  1  0  0  0  0
  9  7  1  0  0  0  0
  9 21  1  0  0  0  0
 10 22  1  0  0  0  0
 11  1  1  0  0  0  0
 14  5  1  0  0  0  0
 15  5  1  0  0  0  0
 16  6  1  0  0  0  0
 20  9  1  0  0  0  0
 23 10  1  0  0  0  0
 24 10  1  0  0  0  0
M  END
$$$$
fraglig_500_min_6PQL_A_2.56994_rhidx
 OpenBabel03212618213D

 13 12  0  0  0  0  0  0  0  0999 V2000
   56.5000   59.8300  117.8300 N   0  0  0  0  0  0  0  0  0  0  0  0
   55.3700   59.7100  117.0900 C   0  0  0  0  0  0  0  0  0  0  0  0
   54.9900   58.5400  116.5800 N   0  0  0  0  0  4  0  0  0  0  0  0
   54.5800   60.7600  116.8300 N   0  0  0  0  0  0  0  0  0  0  0  0
   56.7900   60.9100  118.5800 C   0  0  0  0  0  0  0  0  0  0  0  0
   57.0300   61.8400  119.2900 C   0  0  0  0  0  0  0  0  0  0  0  0
   57.2700   62.7800  120.0100 C   0  0  0  0  0  0  0  0  0  0  0  0
   57.3800   58.8400  118.0200 C   0  0  0  0  0  0  0  0  0  0  0  0
   58.1500   57.9700  118.2000 O   0  0  0  0  0  0  0  0  0  0  0  0
   54.2400   58.4900  115.9100 H   0  0  0  0  0  0  0  0  0  0  0  0
   55.5600   57.6900  116.6200 H   0  0  0  0  0  0  0  0  0  0  0  0
   53.6300   60.6700  116.4400 H   0  0  0  0  0  0  0  0  0  0  0  0
   54.9500   61.7000  116.7600 H   0  0  0  0  0  0  0  0  0  0  0  0
  1  8  1  0  0  0  0
  1  5  1  0  0  0  0
  2  1  1  0  0  0  0
  3 11  1  0  0  0  0
  3  2  2  0  0  0  0
  4  2  1  0  0  0  0
  5  6  3  0  0  0  0
  6  7  1  0  0  0  0
  8  9  1  0  0  0  0
 10  3  1  0  0  0  0
 12  4  1  0  0  0  0
 13  4  1  0  0  0  0
M  END
$$$$
fraglig_228_min_6PQL_A_2.56955_rhidx
 OpenBabel03212610083D

 12 12  0  0  0  0  0  0  0  0999 V2000
   56.3400   59.0400  117.0800 C   0  0  0  0  0  0  0  0  0  0  0  0
   55.0300   58.7700  116.8900 C   0  0  0  0  0  0  0  0  0  0  0  0
   54.1300   59.5500  116.9100 C   0  0  0  0  0  0  0  0  0  0  0  0
   54.2800   60.7300  117.1200 C   0  0  0  0  0  0  0  0  0  0  0  0
   55.3500   61.2200  117.3200 C   0  0  0  0  0  0  0  0  0  0  0  0
   56.5400   60.5800  117.3500 C   0  0  0  0  0  0  0  0  0  0  0  0
   57.4900   60.9600  118.1700 C   0  0  0  0  0  0  0  0  0  0  0  0
   58.7500   61.3300  119.2300 S   0  0  0  0  0  0  0  0  0  0  0  0
   59.9700   60.8900  118.1600 C   0  0  0  0  0  0  0  0  0  0  0  0
   60.8200   60.6100  117.4100 O   0  0  0  0  0  0  0  0  0  0  0  0
   57.1400   58.1800  117.6800 C   0  0  0  0  0  0  0  0  0  0  0  0
   57.8700   57.4100  118.2300 C   0  0  0  0  0  0  0  0  0  0  0  0
  1  6  1  0  0  0  0
  1 11  1  0  0  0  0
  2  3  1  0  0  0  0
  2  1  2  0  0  0  0
  3  4  2  0  0  0  0
  4  5  1  0  0  0  0
  5  6  2  0  0  0  0
  6  7  1  0  0  0  0
  7  8  1  0  0  0  0
  9  8  1  0  0  0  0
 10  9  1  0  0  0  0
 11 12  3  0  0  0  0
M  END
$$$$
fraglig_969_min_6PQL_A_2.56207_rhidx
 OpenBabel03222608063D

 15 16  0  0  0  0  0  0  0  0999 V2000
   60.5600   59.5700  118.3900 C   0  0  0  0  0  0  0  0  0  0  0  0
   60.8800   60.8900  118.2900 C   0  0  0  0  0  0  0  0  0  0  0  0
   60.2200   61.9000  118.2500 C   0  0  0  0  0  0  0  0  0  0  0  0
   59.0300   61.7400  118.3400 C   0  0  0  0  0  0  0  0  0  0  0  0
   58.2500   60.6400  118.5000 C   0  0  0  0  0  0  0  0  0  0  0  0
   59.2100   59.6700  118.4900 C   0  0  0  0  0  0  0  0  0  0  0  0
   57.0800   60.4400  117.6500 C   0  0  0  0  0  0  0  0  0  0  0  0
   56.5100   59.2000  117.5000 N   0  0  0  0  0  0  0  0  0  0  0  0
   55.2900   59.1100  117.4300 C   0  0  0  0  0  0  0  0  0  0  0  0
   54.4000   59.9600  117.4900 N   0  0  0  0  0  0  0  0  0  0  0  0
   54.9300   61.0700  117.6300 C   0  0  0  0  0  0  0  0  0  0  0  0
   56.1000   61.3800  117.7100 C   0  0  0  0  0  0  0  0  0  0  0  0
   61.4200   58.4200  119.4400 S   0  0  0  0  0  0  0  0  0  0  0  0
   60.6700   57.0000  118.9000 C   0  0  0  0  0  0  0  0  0  0  0  0
   60.1700   56.0200  118.5200 O   0  0  0  0  0  0  0  0  0  0  0  0
  1  6  1  0  0  0  0
  1 13  1  0  0  0  0
  2  1  2  0  0  0  0
  3  2  1  0  0  0  0
  3  4  2  0  0  0  0
  4  5  1  0  0  0  0
  6  5  2  0  0  0  0
  7 12  1  0  0  0  0
  7  5  1  0  0  0  0
  8  7  2  0  0  0  0
  9 10  2  0  0  0  0
  9  8  1  0  0  0  0
 10 11  1  0  0  0  0
 11 12  2  0  0  0  0
 14 13  1  0  0  0  0
 15 14  1  0  0  0  0
M  END
$$$$
fraglig_490_min_6PQL_A_2.55422_rhidx
 OpenBabel03212618003D

 12 12  0  0  1  0  0  0  0  0999 V2000
   57.5400   60.4900  118.0700 C   0  0  0  0  0  0  0  0  0  0  0  0
   58.5800   59.8000  118.4800 C   0  0  1  0  0  0  0  0  0  0  0  0
   58.4600   58.5300  118.8800 C   0  0  0  0  0  0  0  0  0  0  0  0
   59.3700   57.7600  119.0000 C   0  0  0  0  0  0  0  0  0  0  0  0
   60.7100   57.7600  118.8200 O   0  0  0  0  0  0  0  0  0  0  0  0
   60.8000   59.0500  118.3900 C   0  0  0  0  0  0  0  0  0  0  0  0
   60.0500   60.1400  118.1400 C   0  0  0  0  0  0  0  0  0  0  0  0
   60.4700   61.2300  117.7500 O   0  0  0  0  0  0  0  0  0  0  0  0
   56.4900   61.0500  117.8300 C   0  0  0  0  0  0  0  0  0  0  0  0
   55.3900   61.5100  117.7200 C   0  0  0  0  0  0  0  0  0  0  0  0
   54.2400   61.9200  117.7400 C   0  0  0  0  0  0  0  0  0  0  0  0
   53.1200   62.3200  117.8100 C   0  0  0  0  0  0  0  0  0  0  0  0
  2  1  1  6  0  0  0
  2  3  1  0  0  0  0
  3  4  2  0  0  0  0
  5  4  1  0  0  0  0
  6  5  1  0  0  0  0
  7  6  1  0  0  0  0
  7  2  1  0  0  0  0
  8  7  2  0  0  0  0
  9  1  1  0  0  0  0
 10 11  1  0  0  0  0
 10  9  3  0  0  0  0
 11 12  3  0  0  0  0
M  END
$$$$
fraglig_436_min_6PQL_A_2.54702_rhidx
 OpenBabel03212616243D

 14 13  0  0  1  0  0  0  0  0999 V2000
   56.6300   59.7300  117.0800 N   0  0  0  0  0  4  0  0  0  0  0  0
   55.4500   59.4100  117.9800 C   0  0  2  0  0  0  0  0  0  0  0  0
   54.8900   58.2600  117.7000 C   0  0  0  0  0  0  0  0  0  0  0  0
   54.6100   60.4000  118.1500 C   0  0  0  0  0  0  0  0  0  0  0  0
   53.5300   61.6800  118.3300 S   0  0  0  0  0  0  0  0  0  0  0  0
   54.2400   62.4300  119.6600 C   0  0  0  0  0  0  0  0  0  0  0  0
   54.6800   62.9200  120.6700 C   0  0  0  0  0  0  0  0  0  0  0  0
   57.9400   59.7200  117.6400 C   0  0  0  0  0  0  0  0  0  0  0  0
   59.0900   59.8000  118.0000 C   0  0  0  0  0  0  0  0  0  0  0  0
   60.7000   60.2100  118.3200 S   0  0  0  0  0  0  0  0  0  0  0  0
   61.3800   58.8000  118.9700 C   0  0  0  0  0  0  0  0  0  0  0  0
   61.8600   57.8300  119.4100 O   0  0  0  0  0  0  0  0  0  0  0  0
   56.4700   60.6600  116.6500 H   0  0  0  0  0  0  0  0  0  0  0  0
   56.6100   59.0700  116.2800 H   0  0  0  0  0  0  0  0  0  0  0  0
  1  8  1  0  0  0  0
  1  2  1  0  0  0  0
  2  3  1  6  0  0  0
  2  4  1  0  0  0  0
  4  5  1  0  0  0  0
  5  6  1  0  0  0  0
  6  7  3  0  0  0  0
  8  9  3  0  0  0  0
  9 10  1  0  0  0  0
 10 11  1  0  0  0  0
 11 12  1  0  0  0  0
 13  1  1  0  0  0  0
 14  1  1  0  0  0  0
M  END
$$$$
fraglig_848_min_6PQL_A_2.54546_rhidx
 OpenBabel03222604463D

 16 16  0  0  0  0  0  0  0  0999 V2000
   60.7800   58.0500  119.2700 C   0  0  0  0  0  0  0  0  0  0  0  0
   61.4300   57.0200  119.2500 O   0  0  0  0  0  0  0  0  0  0  0  0
   59.3300   57.9300  119.4100 C   0  0  0  0  0  0  0  0  0  0  0  0
   57.3900   58.2400  118.4200 C   0  0  0  0  0  0  0  0  0  0  0  0
   56.5900   58.6400  116.9900 S   0  0  0  0  0  0  0  0  0  0  0  0
   55.4800   59.7800  117.5300 C   0  0  0  0  0  0  0  0  0  0  0  0
   54.6200   60.5900  117.7800 C   0  0  0  0  0  0  0  0  0  0  0  0
   53.7600   61.4000  117.9700 C   0  0  0  0  0  0  0  0  0  0  0  0
   61.3700   59.2700  119.1900 O   0  0  0  0  0  0  0  0  0  0  0  0
   60.6700   60.4600  119.3300 C   0  0  0  0  0  0  0  0  0  0  0  0
   59.8400   60.8900  118.3400 C   0  0  0  0  0  0  0  0  0  0  0  0
   59.6500   61.9400  117.7900 C   0  0  0  0  0  0  0  0  0  0  0  0
   58.0300   57.9000  119.5100 O   0  0  0  0  0  0  0  0  0  0  0  0
   60.3700   62.8300  118.1700 C   0  0  0  0  0  0  0  0  0  0  0  0
   61.3600   62.9300  119.1100 O   0  0  0  0  0  0  0  0  0  0  0  0
   61.3300   61.6200  119.5400 C   0  0  0  0  0  0  0  0  0  0  0  0
  1  3  1  0  0  0  0
  2  1  2  0  0  0  0
  3 13  1  0  0  0  0
  4 13  1  0  0  0  0
  5  6  1  0  0  0  0
  5  4  1  0  0  0  0
  6  7  1  0  0  0  0
  7  8  3  0  0  0  0
  9  1  1  0  0  0  0
  9 10  1  0  0  0  0
 10 16  2  0  0  0  0
 11 10  1  0  0  0  0
 12 14  1  0  0  0  0
 12 11  2  0  0  0  0
 14 15  1  0  0  0  0
 15 16  1  0  0  0  0
M  END
$$$$
fraglig_123_min_6PQL_A_2.54377_rhidx
 OpenBabel03212607073D

 18 19  0  0  1  0  0  0  0  0999 V2000
   57.5600   58.7700  117.8100 N   0  0  0  0  0  0  0  0  0  0  0  0
   56.5700   59.2200  117.1100 C   0  0  1  0  0  0  0  0  0  0  0  0
   55.3600   58.7200  117.0000 C   0  0  0  0  0  0  0  0  0  0  0  0
   54.4000   59.4000  117.0000 C   0  0  0  0  0  0  0  0  0  0  0  0
   54.5700   60.6800  117.1400 C   0  0  0  0  0  0  0  0  0  0  0  0
   53.9800   61.5400  118.0000 C   0  0  0  0  0  0  0  0  0  0  0  0
   54.5800   62.2300  118.8000 C   0  0  0  0  0  0  0  0  0  0  0  0
   55.7700   62.2000  118.9100 C   0  0  0  0  0  0  0  0  0  0  0  0
   56.4900   61.4800  118.2400 C   0  0  0  0  0  0  0  0  0  0  0  0
   56.0100   60.6100  117.3100 C   0  0  0  0  0  0  0  0  0  0  0  0
   58.7600   59.1100  117.1800 O   0  0  0  0  0  0  0  0  0  0  0  0
   59.7900   59.2700  117.9800 C   0  0  0  0  0  0  0  0  0  0  0  0
   60.8200   59.4600  118.7600 C   0  0  2  0  0  0  0  0  0  0  0  0
   61.1900   58.1900  119.8900 S   0  0  0  0  0  0  0  0  0  0  0  0
   60.5400   58.8400  121.3100 C   0  0  0  0  0  0  0  0  0  0  0  0
   61.1400   60.7000  119.0700 C   0  0  0  0  0  0  0  0  0  0  0  0
   61.4700   61.9300  119.4500 O   0  0  0  0  0  0  0  0  0  0  0  0
   61.6500   61.9300  120.4300 H   0  0  0  0  0  0  0  0  0  0  0  0
  2 10  1  0  0  0  0
  2  1  1  1  0  0  0
  3  4  2  0  0  0  0
  3  2  1  0  0  0  0
  4  5  1  0  0  0  0
  5 10  2  0  0  0  0
  5  6  1  0  0  0  0
  6  7  2  0  0  0  0
  7  8  1  0  0  0  0
  9  8  2  0  0  0  0
 10  9  1  0  0  0  0
 11  1  1  0  0  0  0
 11 12  1  0  0  0  0
 13 12  1  1  0  0  0
 13 16  1  0  0  0  0
 13 14  1  0  0  0  0
 14 15  1  0  0  0  0
 16 17  1  0  0  0  0
 17 18  1  0  0  0  0
M  END
$$$$
fraglig_818_min_6PQL_A_2.5393_rhidx
 OpenBabel03222603543D

 23 22  0  0  1  0  0  0  0  0999 V2000
   56.1500   61.1000  117.6700 C   0  0  0  0  0  0  0  0  0  0  0  0
   55.1800   60.0500  117.3200 C   0  0  0  0  0  0  0  0  0  0  0  0
   54.4100   59.2300  117.1100 N   0  0  0  0  0  0  0  0  0  0  0  0
   57.5300   60.5400  118.0700 C   0  0  0  0  0  0  0  0  0  0  0  0
   58.2200   61.5800  118.7600 O   0  0  0  0  0  0  0  0  0  0  0  0
   59.3700   61.2700  119.5300 C   0  0  2  0  0  0  0  0  0  0  0  0
   60.5500   60.7100  118.9300 C   0  0  0  0  0  0  0  0  0  0  0  0
   60.6600   62.5900  119.1100 S   0  0  0  0  0  0  0  0  0  0  0  0
   60.8700   62.8600  117.3300 C   0  0  0  0  0  0  0  0  0  0  0  0
   59.0700   61.1600  121.0200 C   0  0  0  0  0  0  0  0  0  0  0  0
   56.2500   61.7900  116.8200 H   0  0  0  0  0  0  0  0  0  0  0  0
   55.7300   61.6900  118.4900 H   0  0  0  0  0  0  0  0  0  0  0  0
   58.0900   60.2300  117.1700 H   0  0  0  0  0  0  0  0  0  0  0  0
   57.4000   59.6600  118.7200 H   0  0  0  0  0  0  0  0  0  0  0  0
   60.5500   60.4100  117.8900 H   0  0  0  0  0  0  0  0  0  0  0  0
   61.3000   60.2500  119.5700 H   0  0  0  0  0  0  0  0  0  0  0  0
   61.8500   62.4700  119.7700 H   0  0  0  0  0  0  0  0  0  0  0  0
   60.1000   62.2900  116.8100 H   0  0  0  0  0  0  0  0  0  0  0  0
   61.8600   62.5200  117.0200 H   0  0  0  0  0  0  0  0  0  0  0  0
   60.7300   63.9200  117.1100 H   0  0  0  0  0  0  0  0  0  0  0  0
   58.3500   60.3500  121.2100 H   0  0  0  0  0  0  0  0  0  0  0  0
   58.6500   62.1000  121.4000 H   0  0  0  0  0  0  0  0  0  0  0  0
   59.9800   60.9400  121.5900 H   0  0  0  0  0  0  0  0  0  0  0  0
  1  4  1  0  0  0  0
  1 12  1  0  0  0  0
  2  1  1  0  0  0  0
  3  2  3  0  0  0  0
  4 14  1  0  0  0  0
  4  5  1  0  0  0  0
  6  5  1  6  0  0  0
  6 10  1  0  0  0  0
  7  8  1  0  0  0  0
  7  6  1  0  0  0  0
  7 16  1  0  0  0  0
  8 17  1  0  0  0  0
  9  8  1  0  0  0  0
 10 21  1  0  0  0  0
 10 22  1  0  0  0  0
 10 23  1  0  0  0  0
 11  1  1  0  0  0  0
 13  4  1  0  0  0  0
 15  7  1  0  0  0  0
 18  9  1  0  0  0  0
 19  9  1  0  0  0  0
 20  9  1  0  0  0  0
M  END
$$$$
fraglig_968_min_6PQL_A_2.53696_rhidx
 OpenBabel03222608043D

 16 16  0  0  1  0  0  0  0  0999 V2000
   58.5200   58.1300  117.5900 O   0  0  0  0  0  0  0  0  0  0  0  0
   59.4400   57.5100  118.3100 C   0  0  0  0  0  0  0  0  0  0  0  0
   60.3600   56.8400  118.9400 C   0  0  2  0  0  0  0  0  0  0  0  0
   61.5200   57.6300  119.9800 S   0  0  0  0  0  0  0  0  0  0  0  0
   61.3400   59.2900  119.6400 C   0  0  0  0  0  0  0  0  0  0  0  0
   60.7200   55.7600  118.3000 C   0  0  0  0  0  0  0  0  0  0  0  0
   61.0300   54.7000  117.5700 O   0  0  0  0  0  0  0  0  0  0  0  0
   58.0600   59.2300  118.1200 C   0  0  0  0  0  0  0  0  0  0  0  0
   57.5500   60.3200  118.6300 C   0  0  0  0  0  0  0  0  0  0  0  0
   56.6500   60.1200  119.6400 C   0  0  0  0  0  0  0  0  0  0  0  0
   55.4700   60.4800  119.7100 C   0  0  0  0  0  0  0  0  0  0  0  0
   54.7600   61.2100  118.8000 C   0  0  0  0  0  0  0  0  0  0  0  0
   55.6700   61.4500  117.8100 C   0  0  0  0  0  0  0  0  0  0  0  0
   53.5200   62.5400  119.3500 B   0  0  0  0  0  0  0  0  0  0  0  0
   56.8400   61.0800  117.7500 C   0  0  0  0  0  0  0  0  0  0  0  0
   60.4100   53.9600  117.8000 H   0  0  0  0  0  0  0  0  0  0  0  0
  1  8  1  0  0  0  0
  1  2  1  0  0  0  0
  2  3  1  0  0  0  0
  3  6  1  6  0  0  0
  3  4  1  0  0  0  0
  5  4  1  0  0  0  0
  7 16  1  0  0  0  0
  7  6  1  0  0  0  0
  8  9  1  0  0  0  0
  9 10  1  0  0  0  0
 10 11  2  0  0  0  0
 12 14  1  0  0  0  0
 12 11  1  0  0  0  0
 13 12  2  0  0  0  0
 15 13  1  0  0  0  0
 15  9  2  0  0  0  0
M  END
$$$$
fraglig_137_min_6PQL_A_2.53629_rhidx
 OpenBabel03212607273D

 10 10  0  0  0  0  0  0  0  0999 V2000
   58.5800   60.7100  117.8300 C   0  0  0  0  0  0  0  0  0  0  0  0
   59.8700   60.3700  117.9100 N   0  0  0  0  0  0  0  0  0  0  0  0
   60.1700   59.0700  117.8700 C   0  0  0  0  0  0  0  0  0  0  0  0
   60.4100   57.9200  117.8300 O   0  0  0  0  0  0  0  0  0  0  0  0
   57.4100   60.9300  117.7300 C   0  0  0  0  0  0  0  0  0  0  0  0
   56.2300   61.0600  117.6200 C   0  0  0  0  0  0  0  0  0  0  0  0
   54.9200   61.1400  117.4900 C   0  0  0  0  0  0  0  0  0  0  0  0
   54.1300   60.2700  118.3600 C   0  0  0  0  0  0  0  0  0  0  0  0
   54.2300   59.9100  117.1000 C   0  0  0  0  0  0  0  0  0  0  0  0
   60.4700   60.9300  117.3100 H   0  0  0  0  0  0  0  0  0  0  0  0
  1  2  1  0  0  0  0
  3  2  1  0  0  0  0
  4  3  1  0  0  0  0
  5  1  1  0  0  0  0
  6  5  3  0  0  0  0
  7  6  1  0  0  0  0
  7  8  1  0  0  0  0
  9  7  1  0  0  0  0
  9  8  1  0  0  0  0
 10  2  1  0  0  0  0
M  END
$$$$
fraglig_651_min_6PQL_A_2.53621_rhidx
 OpenBabel03212622583D

 26 25  0  0  1  0  0  0  0  0999 V2000
   58.4700   58.7700  118.0700 C   0  0  1  0  0  0  0  0  0  0  0  0
   57.1800   59.2800  118.7500 C   0  0  0  0  0  0  0  0  0  0  0  0
   56.0800   59.8000  117.7900 C   0  0  0  0  0  0  0  0  0  0  0  0
   55.8900   61.3400  117.7000 C   0  0  0  0  0  0  0  0  0  0  0  0
   55.8800   62.0700  119.0400 C   0  0  0  0  0  0  0  0  0  0  0  0
   54.8200   62.7000  119.5600 C   0  0  0  0  0  0  0  0  0  0  0  0
   59.3500   59.8700  117.8600 O   0  0  0  0  0  0  0  0  0  0  0  0
   59.1500   57.6400  118.9000 C   0  0  0  0  0  0  0  0  0  0  0  0
   60.8800   57.9800  119.4700 S   0  0  0  0  0  0  0  0  0  0  0  0
   60.5900   58.4600  121.2200 C   0  0  0  0  0  0  0  0  0  0  0  0
   58.2000   58.3300  117.0900 H   0  0  0  0  0  0  0  0  0  0  0  0
   57.4400   60.0100  119.5300 H   0  0  0  0  0  0  0  0  0  0  0  0
   56.7300   58.4400  119.2900 H   0  0  0  0  0  0  0  0  0  0  0  0
   56.2500   59.4200  116.7800 H   0  0  0  0  0  0  0  0  0  0  0  0
   55.1200   59.3600  118.1000 H   0  0  0  0  0  0  0  0  0  0  0  0
   54.9500   61.5400  117.1700 H   0  0  0  0  0  0  0  0  0  0  0  0
   56.6900   61.7600  117.0800 H   0  0  0  0  0  0  0  0  0  0  0  0
   56.8400   62.1100  119.5500 H   0  0  0  0  0  0  0  0  0  0  0  0
   53.8600   62.7300  119.0400 H   0  0  0  0  0  0  0  0  0  0  0  0
   54.9100   63.2500  120.4900 H   0  0  0  0  0  0  0  0  0  0  0  0
   59.9900   59.8500  118.6100 H   0  0  0  0  0  0  0  0  0  0  0  0
   59.1800   56.7300  118.2800 H   0  0  0  0  0  0  0  0  0  0  0  0
   58.5500   57.3900  119.7800 H   0  0  0  0  0  0  0  0  0  0  0  0
   61.5600   58.6700  121.7100 H   0  0  0  0  0  0  0  0  0  0  0  0
   60.1000   57.6400  121.7600 H   0  0  0  0  0  0  0  0  0  0  0  0
   59.9700   59.3600  121.2700 H   0  0  0  0  0  0  0  0  0  0  0  0
  1 11  1  6  0  0  0
  1  2  1  0  0  0  0
  1  8  1  0  0  0  0
  2 13  1  0  0  0  0
  2 12  1  0  0  0  0
  3 15  1  0  0  0  0
  3  2  1  0  0  0  0
  4  3  1  0  0  0  0
  4  5  1  0  0  0  0
  5 18  1  0  0  0  0
  5  6  2  0  0  0  0
  6 20  1  0  0  0  0
  7  1  1  0  0  0  0
  7 21  1  0  0  0  0
  8  9  1  0  0  0  0
  8 23  1  0  0  0  0
  9 10  1  0  0  0  0
 10 26  1  0  0  0  0
 10 24  1  0  0  0  0
 10 25  1  0  0  0  0
 14  3  1  0  0  0  0
 16  4  1  0  0  0  0
 17  4  1  0  0  0  0
 19  6  1  0  0  0  0
 22  8  1  0  0  0  0
M  END
$$$$
fraglig_986_min_6PQL_A_2.53354_rhidx
 OpenBabel03222608323D

 12 12  0  0  1  0  0  0  0  0999 V2000
   61.1600   59.1200  119.7200 C   0  0  0  0  0  0  0  0  0  0  0  0
   60.3000   58.6300  118.8500 C   0  0  2  0  0  0  0  0  0  0  0  0
   59.0900   59.0200  118.9500 C   0  0  0  0  0  0  0  0  0  0  0  0
   57.9900   58.3300  119.0400 N   0  0  0  0  0  0  0  0  0  0  0  0
   58.6500   57.1400  118.8700 N   0  0  0  0  0  0  0  0  0  0  0  0
   59.9500   57.2600  118.8400 N   0  0  0  0  0  0  0  0  0  0  0  0
   56.9200   58.5500  118.2700 C   0  0  0  0  0  0  0  0  0  0  0  0
   55.9400   58.6400  117.5700 C   0  0  0  0  0  0  0  0  0  0  0  0
   54.8100   58.5900  116.7200 N   0  0  0  0  0  4  0  0  0  0  0  0
   54.8300   59.3200  115.9900 H   0  0  0  0  0  0  0  0  0  0  0  0
   53.9300   58.6600  117.2300 H   0  0  0  0  0  0  0  0  0  0  0  0
   54.8800   57.6400  116.2600 H   0  0  0  0  0  0  0  0  0  0  0  0
  2  3  1  0  0  0  0
  2  1  1  1  0  0  0
  3  4  1  0  0  0  0
  5  4  1  0  0  0  0
  6  2  1  0  0  0  0
  6  5  2  0  0  0  0
  7  4  1  0  0  0  0
  8  7  3  0  0  0  0
  9 11  1  0  0  0  0
  9  8  1  0  0  0  0
 10  9  1  0  0  0  0
 12  9  1  0  0  0  0
M  END
$$$$
fraglig_258_min_6PQL_A_2.53347_rhidx
 OpenBabel03212610583D

 18 18  0  0  0  0  0  0  0  0999 V2000
   57.2300   59.3100  118.7300 C   0  0  0  0  0  0  0  0  0  0  0  0
   57.4800   58.2000  117.8800 C   0  0  0  0  0  0  0  0  0  0  0  0
   58.6600   57.5400  118.1300 N   0  0  0  0  0  0  0  0  0  0  0  0
   59.2500   58.1400  119.1500 C   0  0  0  0  0  0  0  0  0  0  0  0
   58.4700   59.5200  119.9200 S   0  0  0  0  0  0  0  0  0  0  0  0
   56.0100   60.1700  118.5900 C   0  0  0  0  0  0  0  0  0  0  0  0
   56.3800   61.6700  118.4900 C   0  0  0  0  0  0  0  0  0  0  0  0
   60.7700   57.4300  119.6900 S   0  0  0  0  0  0  0  0  0  0  0  0
   60.9600   58.2100  121.3500 C   0  0  0  0  0  0  0  0  0  0  0  0
   56.8400   57.8700  117.0700 H   0  0  0  0  0  0  0  0  0  0  0  0
   55.3500   60.0200  119.4500 H   0  0  0  0  0  0  0  0  0  0  0  0
   55.4300   59.8800  117.7000 H   0  0  0  0  0  0  0  0  0  0  0  0
   56.9600   61.9900  119.3700 H   0  0  0  0  0  0  0  0  0  0  0  0
   55.4800   62.2900  118.4400 H   0  0  0  0  0  0  0  0  0  0  0  0
   56.9800   61.8600  117.5900 H   0  0  0  0  0  0  0  0  0  0  0  0
   61.9100   57.9100  121.8000 H   0  0  0  0  0  0  0  0  0  0  0  0
   60.1400   57.8800  121.9900 H   0  0  0  0  0  0  0  0  0  0  0  0
   60.9400   59.3000  121.2700 H   0  0  0  0  0  0  0  0  0  0  0  0
  1  5  1  0  0  0  0
  2  3  1  0  0  0  0
  2  1  2  0  0  0  0
  3  4  2  0  0  0  0
  4  8  1  0  0  0  0
  4  5  1  0  0  0  0
  6  1  1  0  0  0  0
  6 11  1  0  0  0  0
  7  6  1  0  0  0  0
  7 13  1  0  0  0  0
  8  9  1  0  0  0  0
  9 16  1  0  0  0  0
  9 17  1  0  0  0  0
 10  2  1  0  0  0  0
 12  6  1  0  0  0  0
 14  7  1  0  0  0  0
 15  7  1  0  0  0  0
 18  9  1  0  0  0  0
M  END
$$$$
fraglig_568_min_6PQL_A_2.53325_rhidx
 OpenBabel03212620283D

 16 16  0  0  1  0  0  0  0  0999 V2000
   57.5000   60.4300  118.6700 C   0  0  0  0  0  0  0  0  0  0  0  0
   58.4900   60.1000  119.4900 O   0  0  0  0  0  0  0  0  0  0  0  0
   59.7400   59.8700  118.9900 C   0  0  0  0  0  0  0  0  0  0  0  0
   60.2300   60.5100  117.9400 C   0  0  0  0  0  0  0  0  0  0  0  0
   60.4200   58.8900  119.5100 C   0  0  0  0  0  0  0  0  0  0  0  0
   61.2300   57.5700  120.1700 S   0  0  0  0  0  0  0  0  0  0  0  0
   60.8300   56.4600  118.9700 C   0  0  0  0  0  0  0  0  0  0  0  0
   60.5500   55.7000  118.1200 O   0  0  0  0  0  0  0  0  0  0  0  0
   56.5200   60.7300  117.8700 C   0  0  1  0  0  0  0  0  0  0  0  0
   55.5900   59.7900  117.6700 C   0  0  0  0  0  0  0  0  0  0  0  0
   54.3900   59.7100  117.7600 C   0  0  0  0  0  0  0  0  0  0  0  0
   53.8300   60.7100  118.1100 C   0  0  0  0  0  0  0  0  0  0  0  0
   54.3100   62.0500  118.4500 N   0  0  0  0  0  4  0  0  0  0  0  0
   55.7300   61.7600  118.2300 C   0  0  0  0  0  0  0  0  0  0  0  0
   54.1300   62.3100  119.4200 H   0  0  0  0  0  0  0  0  0  0  0  0
   53.9500   62.7500  117.7800 H   0  0  0  0  0  0  0  0  0  0  0  0
  1  2  1  0  0  0  0
  3  2  1  0  0  0  0
  3  5  1  0  0  0  0
  4  3  2  0  0  0  0
  5  6  1  0  0  0  0
  7  6  1  0  0  0  0
  8  7  1  0  0  0  0
  9 14  1  0  0  0  0
  9  1  1  1  0  0  0
 10 11  1  0  0  0  0
 10  9  1  0  0  0  0
 11 12  2  0  0  0  0
 12 13  1  0  0  0  0
 13 15  1  0  0  0  0
 14 13  1  0  0  0  0
 16 13  1  0  0  0  0
M  END
$$$$
fraglig_56_min_6PQL_A_2.53236_rhidx
 OpenBabel03212620303D

  9  9  0  0  0  0  0  0  0  0999 V2000
   58.6400   58.3300  118.8400 C   0  0  0  0  0  0  0  0  0  0  0  0
   59.5800   58.7400  119.5900 C   0  0  0  0  0  0  0  0  0  0  0  0
   60.9200   58.0000  120.1400 S   0  0  0  0  0  0  0  0  0  0  0  0
   60.2000   56.7700  119.2000 N   0  0  0  0  0  0  0  0  0  0  0  0
   59.0700   57.0200  118.5900 N   0  0  0  0  0  0  0  0  0  0  0  0
   57.5400   58.9600  118.3300 C   0  0  0  0  0  0  0  0  0  0  0  0
   56.7200   58.3100  117.5500 C   0  0  0  0  0  0  0  0  0  0  0  0
   57.1900   60.6300  118.7500 S   0  0  0  0  0  0  0  0  0  0  0  0
   56.2900   61.2300  117.4500 C   0  0  0  0  0  0  0  0  0  0  0  0
  1  2  2  0  0  0  0
  2  3  1  0  0  0  0
  4  3  1  0  0  0  0
  5  1  1  0  0  0  0
  5  4  2  0  0  0  0
  6  8  1  0  0  0  0
  6  1  1  0  0  0  0
  7  6  2  0  0  0  0
  9  8  1  0  0  0  0
M  END
$$$$
fraglig_501_min_6PQL_A_2.51591_rhidx
 OpenBabel03212618233D

 30 30  0  0  1  0  0  0  0  0999 V2000
   56.2800   61.5600  118.3400 C   0  0  0  0  0  0  0  0  0  0  0  0
   54.8300   61.3500  117.7900 C   0  0  2  0  0  0  0  0  0  0  0  0
   53.5400   62.1600  118.8900 S   0  0  0  0  0  0  0  0  0  0  0  0
   54.4900   63.1700  120.1100 C   0  0  0  0  0  0  0  0  0  0  0  0
   54.4400   59.8800  117.4400 C   0  0  0  0  0  0  0  0  0  0  0  0
   53.3200   59.4500  118.2100 O   0  0  0  0  0  0  0  0  0  0  0  0
   57.3400   60.5500  117.8700 C   0  0  0  0  0  0  0  0  0  0  0  0
   58.7800   61.0100  118.2200 C   0  0  0  0  0  0  0  0  0  0  0  0
   59.8700   59.9100  118.0400 C   0  0  0  0  0  0  0  0  0  0  0  0
   59.3400   58.4800  117.8800 C   0  0  2  0  0  0  0  0  0  0  0  0
   59.4000   57.5100  119.0300 C   0  0  0  0  0  0  0  0  0  0  0  0
   60.3200   57.4300  117.9200 O   0  0  0  0  0  0  0  0  0  0  0  0
   56.2800   61.4900  119.4200 H   0  0  0  0  0  0  0  0  0  0  0  0
   56.6000   62.5700  118.0700 H   0  0  0  0  0  0  0  0  0  0  0  0
   54.7900   61.9000  116.8300 H   0  0  0  0  0  0  0  0  0  0  0  0
   53.8000   63.8100  120.6700 H   0  0  0  0  0  0  0  0  0  0  0  0
   55.2300   63.7900  119.6000 H   0  0  0  0  0  0  0  0  0  0  0  0
   55.0000   62.5000  120.8200 H   0  0  0  0  0  0  0  0  0  0  0  0
   55.2600   59.1800  117.6000 H   0  0  0  0  0  0  0  0  0  0  0  0
   54.2100   59.8200  116.3600 H   0  0  0  0  0  0  0  0  0  0  0  0
   52.8100   60.2900  118.3100 H   0  0  0  0  0  0  0  0  0  0  0  0
   57.1400   59.6200  118.3900 H   0  0  0  0  0  0  0  0  0  0  0  0
   57.2600   60.3700  116.7900 H   0  0  0  0  0  0  0  0  0  0  0  0
   58.8000   61.3600  119.2600 H   0  0  0  0  0  0  0  0  0  0  0  0
   59.0400   61.8800  117.6000 H   0  0  0  0  0  0  0  0  0  0  0  0
   60.5700   59.9700  118.8800 H   0  0  0  0  0  0  0  0  0  0  0  0
   60.4700   60.1600  117.1500 H   0  0  0  0  0  0  0  0  0  0  0  0
   58.5800   58.3500  117.1200 H   0  0  0  0  0  0  0  0  0  0  0  0
   58.6600   56.7200  119.0800 H   0  0  0  0  0  0  0  0  0  0  0  0
   59.8700   57.8000  119.9700 H   0  0  0  0  0  0  0  0  0  0  0  0
  1 13  1  0  0  0  0
  2 15  1  6  0  0  0
  2  1  1  0  0  0  0
  2  3  1  0  0  0  0
  3  4  1  0  0  0  0
  4 16  1  0  0  0  0
  4 18  1  0  0  0  0
  5 19  1  0  0  0  0
  5  2  1  0  0  0  0
  5  6  1  0  0  0  0
  6 21  1  0  0  0  0
  7  8  1  0  0  0  0
  7  1  1  0  0  0  0
  7 22  1  0  0  0  0
  8 24  1  0  0  0  0
  9  8  1  0  0  0  0
  9 26  1  0  0  0  0
 10 28  1  6  0  0  0
 10 12  1  0  0  0  0
 10  9  1  0  0  0  0
 10 11  1  0  0  0  0
 11 29  1  0  0  0  0
 11 30  1  0  0  0  0
 12 11  1  0  0  0  0
 14  1  1  0  0  0  0
 17  4  1  0  0  0  0
 20  5  1  0  0  0  0
 23  7  1  0  0  0  0
 25  8  1  0  0  0  0
 27  9  1  0  0  0  0
M  END
$$$$
fraglig_293_min_6PQL_A_2.5055_rhidx
 OpenBabel03212612053D

 15 17  0  0  1  0  0  0  0  0999 V2000
   57.8900   60.5600  117.9400 C   0  0  0  0  0  0  0  0  0  0  0  0
   58.2400   61.7600  118.4600 C   0  0  0  0  0  0  0  0  0  0  0  0
   59.2400   62.1700  119.0300 C   0  0  0  0  0  0  0  0  0  0  0  0
   60.1100   61.3600  119.1700 C   0  0  0  0  0  0  0  0  0  0  0  0
   60.2400   60.0500  118.8200 C   0  0  0  0  0  0  0  0  0  0  0  0
   59.0200   59.8500  118.2400 C   0  0  0  0  0  0  0  0  0  0  0  0
   56.5800   60.0000  118.3100 C   0  0  1  0  0  0  0  0  0  0  0  0
   55.3500   60.6800  118.0000 N   0  0  0  0  0  0  0  0  0  0  0  0
   55.2200   61.8000  117.2700 C   0  0  0  0  0  0  0  0  0  0  0  0
   54.7800   59.5900  117.4800 C   0  0  1  0  0  0  0  0  0  0  0  0
   55.1600   58.4800  117.3100 N   0  0  0  0  0  0  0  0  0  0  0  0
   56.1900   58.8400  117.8100 C   0  0  2  0  0  0  0  0  0  0  0  0
   60.9600   58.8800  119.9500 S   0  0  0  0  0  0  0  0  0  0  0  0
   60.6900   57.4400  119.1100 C   0  0  0  0  0  0  0  0  0  0  0  0
   60.5200   56.4300  118.5400 O   0  0  0  0  0  0  0  0  0  0  0  0
  1  6  2  0  0  0  0
  1  2  1  0  0  0  0
  2  3  2  0  0  0  0
  3  4  1  0  0  0  0
  5  4  2  0  0  0  0
  5 13  1  0  0  0  0
  6  5  1  0  0  0  0
  7  1  1  6  0  0  0
  8  7  1  0  0  0  0
  9  8  1  0  0  0  0
 10 11  1  6  0  0  0
 10 12  1  0  0  0  0
 10  8  1  0  0  0  0
 12 11  1  1  0  0  0
 12  7  1  0  0  0  0
 14 13  1  0  0  0  0
 15 14  1  0  0  0  0
M  END
$$$$
fraglig_285_min_6PQL_A_2.5029_rhidx
 OpenBabel03212611503D

  9  8  0  0  0  0  0  0  0  0999 V2000
   57.2900   60.5400  117.8000 C   0  0  0  0  0  0  0  0  0  0  0  0
   56.6900   59.2600  118.1700 C   0  0  0  0  0  0  0  0  0  0  0  0
   55.5500   59.1800  118.5800 O   0  0  0  0  0  0  0  0  0  0  0  0
   57.4600   58.1100  118.0800 N   0  0  0  0  0  0  0  0  0  0  0  0
   58.7800   58.0900  117.9300 C   0  0  0  0  0  0  0  0  0  0  0  0
   60.0900   58.0600  117.8200 O   0  0  0  0  0  0  0  0  0  0  0  0
   60.7000   57.5300  118.8400 C   0  0  0  0  0  0  0  0  0  0  0  0
   61.2300   57.0300  119.7800 O   0  0  0  0  0  0  0  0  0  0  0  0
   57.0200   57.2100  118.2400 H   0  0  0  0  0  0  0  0  0  0  0  0
  1  2  1  0  0  0  0
  2  3  2  0  0  0  0
  4  2  1  0  0  0  0
  4  9  1  0  0  0  0
  5  4  1  0  0  0  0
  6  5  1  0  0  0  0
  6  7  1  0  0  0  0
  7  8  1  0  0  0  0
M  END
$$$$
