fraglig_742_min_6PQL_A_2.7182_rhidx
 OpenBabel03222614283D

  9  8  0  0  0  0  0  0  0  0999 V2000
   58.1100   59.6500  118.0000 C   0  0  0  0  0  0  0  0  0  0  0  0
   57.0000   60.0400  117.8900 C   0  0  0  0  0  0  0  0  0  0  0  0
   55.7600   60.4500  117.7600 C   0  0  0  0  0  0  0  0  0  0  0  0
   55.5700   61.6800  117.3600 C   0  0  0  0  0  0  0  0  0  0  0  0
   54.9000   59.5600  117.3400 C   0  0  0  0  0  0  0  0  0  0  0  0
   59.2300   59.2100  118.1000 C   0  0  0  0  0  0  0  0  0  0  0  0
   60.4100   58.6500  118.2200 O   0  0  0  0  0  0  0  0  0  0  0  0
   61.3300   59.4200  118.7700 C   0  0  0  0  0  0  0  0  0  0  0  0
   62.1600   60.0900  119.2400 O   0  0  0  0  0  0  0  0  0  0  0  0
  1  6  1  0  0  0  0
  2  1  3  0  0  0  0
  3  2  1  0  0  0  0
  4  3  2  0  0  0  0
  5  3  1  0  0  0  0
  6  7  1  0  0  0  0
  7  8  1  0  0  0  0
  8  9  1  0  0  0  0
M  END
