fraglig_123_min_6PQL_A_2.54377_rhidx
 OpenBabel03222614283D

 18 19  0  0  1  0  0  0  0  0999 V2000
   57.5600   58.7700  117.8100 N   0  0  0  0  0  0  0  0  0  0  0  0
   56.5700   59.2200  117.1100 C   0  0  1  0  0  0  0  0  0  0  0  0
   55.3600   58.7200  117.0000 C   0  0  0  0  0  0  0  0  0  0  0  0
   54.4000   59.4000  117.0000 C   0  0  0  0  0  0  0  0  0  0  0  0
   54.5700   60.6800  117.1400 C   0  0  0  0  0  0  0  0  0  0  0  0
   53.9800   61.5400  118.0000 C   0  0  0  0  0  0  0  0  0  0  0  0
   54.5800   62.2300  118.8000 C   0  0  0  0  0  0  0  0  0  0  0  0
   55.7700   62.2000  118.9100 C   0  0  0  0  0  0  0  0  0  0  0  0
   56.4900   61.4800  118.2400 C   0  0  0  0  0  0  0  0  0  0  0  0
   56.0100   60.6100  117.3100 C   0  0  0  0  0  0  0  0  0  0  0  0
   58.7600   59.1100  117.1800 O   0  0  0  0  0  0  0  0  0  0  0  0
   59.7900   59.2700  117.9800 C   0  0  0  0  0  0  0  0  0  0  0  0
   60.8200   59.4600  118.7600 C   0  0  2  0  0  0  0  0  0  0  0  0
   61.1900   58.1900  119.8900 S   0  0  0  0  0  0  0  0  0  0  0  0
   60.5400   58.8400  121.3100 C   0  0  0  0  0  0  0  0  0  0  0  0
   61.1400   60.7000  119.0700 C   0  0  0  0  0  0  0  0  0  0  0  0
   61.4700   61.9300  119.4500 O   0  0  0  0  0  0  0  0  0  0  0  0
   61.6500   61.9300  120.4300 H   0  0  0  0  0  0  0  0  0  0  0  0
  2 10  1  0  0  0  0
  2  1  1  1  0  0  0
  3  4  2  0  0  0  0
  3  2  1  0  0  0  0
  4  5  1  0  0  0  0
  5 10  2  0  0  0  0
  5  6  1  0  0  0  0
  6  7  2  0  0  0  0
  7  8  1  0  0  0  0
  9  8  2  0  0  0  0
 10  9  1  0  0  0  0
 11  1  1  0  0  0  0
 11 12  1  0  0  0  0
 13 12  1  1  0  0  0
 13 16  1  0  0  0  0
 13 14  1  0  0  0  0
 14 15  1  0  0  0  0
 16 17  1  0  0  0  0
 17 18  1  0  0  0  0
M  END
