fraglig_598_min_6PQL_A_2.78507_rhidx
 OpenBabel03222614283D

 13 13  0  0  1  0  0  0  0  0999 V2000
   61.2400   58.1900  121.4000 C   0  0  0  0  0  0  0  0  0  0  0  0
   60.7400   58.2700  120.1800 C   0  0  2  0  0  0  0  0  0  0  0  0
   59.4800   58.1300  120.0200 C   0  0  0  0  0  0  0  0  0  0  0  0
   58.8300   57.5100  119.0900 N   0  0  0  0  0  0  0  0  0  0  0  0
   59.9700   57.1400  118.4200 N   0  0  0  0  0  0  0  0  0  0  0  0
   61.0500   57.4300  119.0900 N   0  0  0  0  0  0  0  0  0  0  0  0
   57.8000   58.1400  118.5000 C   0  0  0  0  0  0  0  0  0  0  0  0
   56.8400   58.7600  118.1400 C   0  0  0  0  0  0  0  0  0  0  0  0
   55.8600   59.4000  117.8800 C   0  0  0  0  0  0  0  0  0  0  0  0
   54.6800   60.1700  117.7100 N   0  0  0  0  0  4  0  0  0  0  0  0
   54.8400   61.2700  116.8400 C   0  0  0  0  0  0  0  0  0  0  0  0
   53.5700   59.3900  117.3200 C   0  0  0  0  0  0  0  0  0  0  0  0
   54.4400   60.5900  118.6200 H   0  0  0  0  0  0  0  0  0  0  0  0
  2  1  1  1  0  0  0
  3  2  1  0  0  0  0
  4  3  1  0  0  0  0
  5  4  1  0  0  0  0
  5  6  2  0  0  0  0
  6  2  1  0  0  0  0
  7  4  1  0  0  0  0
  8  7  3  0  0  0  0
  9  8  1  0  0  0  0
 10  9  1  0  0  0  0
 10 13  1  0  0  0  0
 11 10  1  0  0  0  0
 12 10  1  0  0  0  0
M  END
