fraglig_293_min_6PQL_A_2.5055_rhidx
 OpenBabel03222614283D

 15 17  0  0  1  0  0  0  0  0999 V2000
   57.8900   60.5600  117.9400 C   0  0  0  0  0  0  0  0  0  0  0  0
   58.2400   61.7600  118.4600 C   0  0  0  0  0  0  0  0  0  0  0  0
   59.2400   62.1700  119.0300 C   0  0  0  0  0  0  0  0  0  0  0  0
   60.1100   61.3600  119.1700 C   0  0  0  0  0  0  0  0  0  0  0  0
   60.2400   60.0500  118.8200 C   0  0  0  0  0  0  0  0  0  0  0  0
   59.0200   59.8500  118.2400 C   0  0  0  0  0  0  0  0  0  0  0  0
   56.5800   60.0000  118.3100 C   0  0  1  0  0  0  0  0  0  0  0  0
   55.3500   60.6800  118.0000 N   0  0  0  0  0  0  0  0  0  0  0  0
   55.2200   61.8000  117.2700 C   0  0  0  0  0  0  0  0  0  0  0  0
   54.7800   59.5900  117.4800 C   0  0  1  0  0  0  0  0  0  0  0  0
   55.1600   58.4800  117.3100 N   0  0  0  0  0  0  0  0  0  0  0  0
   56.1900   58.8400  117.8100 C   0  0  2  0  0  0  0  0  0  0  0  0
   60.9600   58.8800  119.9500 S   0  0  0  0  0  0  0  0  0  0  0  0
   60.6900   57.4400  119.1100 C   0  0  0  0  0  0  0  0  0  0  0  0
   60.5200   56.4300  118.5400 O   0  0  0  0  0  0  0  0  0  0  0  0
  1  6  2  0  0  0  0
  1  2  1  0  0  0  0
  2  3  2  0  0  0  0
  3  4  1  0  0  0  0
  5  4  2  0  0  0  0
  5 13  1  0  0  0  0
  6  5  1  0  0  0  0
  7  1  1  6  0  0  0
  8  7  1  0  0  0  0
  9  8  1  0  0  0  0
 10 11  1  6  0  0  0
 10 12  1  0  0  0  0
 10  8  1  0  0  0  0
 12 11  1  1  0  0  0
 12  7  1  0  0  0  0
 14 13  1  0  0  0  0
 15 14  1  0  0  0  0
M  END
