fraglig_57_min_6PQL_A_2.58299_rhidx
 OpenBabel03222614283D

 20 19  0  0  1  0  0  0  0  0999 V2000
   56.2900   59.7500  117.6100 C   0  0  0  0  0  0  0  0  0  0  0  0
   57.4600   59.5500  117.8300 C   0  0  0  0  0  0  0  0  0  0  0  0
   54.8600   60.0600  117.4000 C   0  0  2  0  0  0  0  0  0  0  0  0
   54.6000   61.5800  117.3700 C   0  0  0  0  0  0  0  0  0  0  0  0
   54.3100   62.2400  118.7400 C   0  0  0  0  0  0  0  0  0  0  0  0
   54.1200   59.4300  118.4500 O   0  0  0  0  0  0  0  0  0  0  0  0
   58.8500   59.3400  118.1900 C   0  0  0  0  0  0  0  0  0  0  0  0
   59.5700   60.3000  118.4000 O   0  0  0  0  0  0  0  0  0  0  0  0
   59.1000   57.7500  119.0000 S   0  0  0  0  0  0  0  0  0  0  0  0
   60.2000   58.2700  120.3800 C   0  0  0  0  0  0  0  0  0  0  0  0
   54.5700   59.6300  116.4300 H   0  0  0  0  0  0  0  0  0  0  0  0
   53.7500   61.7700  116.7000 H   0  0  0  0  0  0  0  0  0  0  0  0
   55.4500   62.0900  116.9100 H   0  0  0  0  0  0  0  0  0  0  0  0
   53.3800   61.8400  119.1700 H   0  0  0  0  0  0  0  0  0  0  0  0
   54.1700   63.3200  118.6200 H   0  0  0  0  0  0  0  0  0  0  0  0
   55.1300   62.0800  119.4400 H   0  0  0  0  0  0  0  0  0  0  0  0
   54.6900   59.5300  119.2400 H   0  0  0  0  0  0  0  0  0  0  0  0
   60.4900   57.4000  120.9700 H   0  0  0  0  0  0  0  0  0  0  0  0
   59.6600   58.9800  121.0200 H   0  0  0  0  0  0  0  0  0  0  0  0
   61.1000   58.7700  119.9900 H   0  0  0  0  0  0  0  0  0  0  0  0
  1  2  3  0  0  0  0
  2  7  1  0  0  0  0
  3 11  1  6  0  0  0
  3  1  1  0  0  0  0
  3  6  1  0  0  0  0
  4  3  1  0  0  0  0
  4  5  1  0  0  0  0
  5 14  1  0  0  0  0
  5 16  1  0  0  0  0
  6 17  1  0  0  0  0
  7  8  2  0  0  0  0
  7  9  1  0  0  0  0
  9 10  1  0  0  0  0
 10 18  1  0  0  0  0
 10 19  1  0  0  0  0
 12  4  1  0  0  0  0
 13  4  1  0  0  0  0
 15  5  1  0  0  0  0
 20 10  1  0  0  0  0
M  END
