fraglig_886_min_6PQL_A_2.67357_rhidx
 OpenBabel03222614283D

 13 14  0  0  1  0  0  0  0  0999 V2000
   56.9100   59.6400  117.5700 C   0  0  0  0  0  0  0  0  0  0  0  0
   55.9100   58.7400  117.3900 C   0  0  0  0  0  0  0  0  0  0  0  0
   54.7000   58.8600  117.3400 C   0  0  0  0  0  0  0  0  0  0  0  0
   54.2800   59.9800  117.4700 C   0  0  0  0  0  0  0  0  0  0  0  0
   54.8800   61.1800  117.6900 C   0  0  0  0  0  0  0  0  0  0  0  0
   54.1500   62.4200  118.9300 B   0  0  0  0  0  0  0  0  0  0  0  0
   56.1900   60.7800  117.7200 C   0  0  0  0  0  0  0  0  0  0  0  0
   58.1000   59.3500  118.2500 N   0  0  0  0  0  0  0  0  0  0  0  0
   59.1700   60.0700  118.3200 C   0  0  0  0  0  0  0  0  0  0  0  0
   60.4000   59.7400  118.3200 C   0  0  1  0  0  0  0  0  0  0  0  0
   61.1800   60.2100  119.2700 C   0  0  0  0  0  0  0  0  0  0  0  0
   60.1000   58.3500  118.2200 N   0  0  0  0  0  0  0  0  0  0  0  0
   58.8000   58.1800  118.1300 N   0  0  0  0  0  0  0  0  0  0  0  0
  1  7  1  0  0  0  0
  1  8  1  0  0  0  0
  2  1  2  0  0  0  0
  3  2  1  0  0  0  0
  3  4  2  0  0  0  0
  4  5  1  0  0  0  0
  5  7  2  0  0  0  0
  5  6  1  0  0  0  0
  8  9  1  0  0  0  0
  9 10  1  0  0  0  0
 10 11  1  1  0  0  0
 12 10  1  0  0  0  0
 13 12  2  0  0  0  0
 13  8  1  0  0  0  0
M  END
