fraglig_708_min_6PQL_A_2.62153_rhidx
 OpenBabel03222614283D

 21 21  0  0  0  0  0  0  0  0999 V2000
   58.1600   59.3000  117.8000 N   0  0  0  0  0  0  0  0  0  0  0  0
   57.4200   60.4600  117.7600 C   0  0  0  0  0  0  0  0  0  0  0  0
   56.1500   60.0200  117.5200 C   0  0  0  0  0  0  0  0  0  0  0  0
   54.9300   60.8800  117.4500 C   0  0  0  0  0  0  0  0  0  0  0  0
   56.1400   58.6600  117.4400 N   0  0  0  0  0  0  0  0  0  0  0  0
   57.3600   58.2200  117.5900 N   0  0  0  0  0  0  0  0  0  0  0  0
   59.5800   59.1400  118.1400 C   0  0  0  0  0  0  0  0  0  0  0  0
   59.9300   57.7500  118.7100 C   0  0  0  0  0  0  0  0  0  0  0  0
   61.3600   57.8200  119.8700 S   0  0  0  0  0  0  0  0  0  0  0  0
   60.5600   58.6200  121.3200 C   0  0  0  0  0  0  0  0  0  0  0  0
   57.8200   61.4500  117.9000 H   0  0  0  0  0  0  0  0  0  0  0  0
   55.1700   61.9400  117.5600 H   0  0  0  0  0  0  0  0  0  0  0  0
   54.2200   60.6100  118.2500 H   0  0  0  0  0  0  0  0  0  0  0  0
   54.4100   60.7400  116.5000 H   0  0  0  0  0  0  0  0  0  0  0  0
   59.8300   59.9100  118.8800 H   0  0  0  0  0  0  0  0  0  0  0  0
   60.1900   59.3400  117.2500 H   0  0  0  0  0  0  0  0  0  0  0  0
   60.1700   57.0700  117.8800 H   0  0  0  0  0  0  0  0  0  0  0  0
   59.0800   57.3300  119.2600 H   0  0  0  0  0  0  0  0  0  0  0  0
   61.2600   58.6700  122.1600 H   0  0  0  0  0  0  0  0  0  0  0  0
   59.6800   58.0400  121.6200 H   0  0  0  0  0  0  0  0  0  0  0  0
   60.2400   59.6400  121.0700 H   0  0  0  0  0  0  0  0  0  0  0  0
  1  7  1  0  0  0  0
  2  1  1  0  0  0  0
  2 11  1  0  0  0  0
  3  2  2  0  0  0  0
  4  3  1  0  0  0  0
  4 12  1  0  0  0  0
  4 13  1  0  0  0  0
  5  3  1  0  0  0  0
  5  6  2  0  0  0  0
  6  1  1  0  0  0  0
  7  8  1  0  0  0  0
  7 15  1  0  0  0  0
  8 18  1  0  0  0  0
  8  9  1  0  0  0  0
  9 10  1  0  0  0  0
 10 20  1  0  0  0  0
 10 19  1  0  0  0  0
 14  4  1  0  0  0  0
 16  7  1  0  0  0  0
 17  8  1  0  0  0  0
 21 10  1  0  0  0  0
M  END
