fraglig_140_min_6PQL_A_2.59401_rhidx
 OpenBabel03222614283D

 24 23  0  0  1  0  0  0  0  0999 V2000
   59.3600   58.5900  119.2800 N   0  0  0  0  0  0  0  0  0  0  0  0
   60.0200   57.5900  119.1200 C   0  0  0  0  0  0  0  0  0  0  0  0
   60.7800   56.2200  118.8100 S   0  0  0  0  0  0  0  0  0  0  0  0
   58.8000   59.8200  118.7700 C   0  0  2  0  0  0  0  0  0  0  0  0
   57.4800   59.5000  118.0000 C   0  0  0  0  0  0  0  0  0  0  0  0
   56.5900   60.6700  117.7600 N   0  0  0  0  0  0  0  0  0  0  0  0
   55.2100   60.5700  117.5300 C   0  0  0  0  0  0  0  0  0  0  0  0
   54.5200   59.0400  117.5100 S   0  0  0  0  0  0  0  0  0  0  0  0
   54.0700   62.1300  117.3400 S   0  0  0  0  0  0  0  0  0  0  0  0
   53.4200   62.5100  118.9900 C   0  0  0  0  0  0  0  0  0  0  0  0
   59.6900   60.4500  117.8500 O   0  0  0  0  0  0  0  0  0  0  0  0
   60.7700   61.1000  118.3600 C   0  0  0  0  0  0  0  0  0  0  0  0
   60.6700   62.5700  117.9700 C   0  0  0  0  0  0  0  0  0  0  0  0
   61.8100   60.5700  118.6900 O   0  0  0  0  0  0  0  0  0  0  0  0
   58.5800   60.5100  119.6000 H   0  0  0  0  0  0  0  0  0  0  0  0
   56.9500   58.7300  118.5800 H   0  0  0  0  0  0  0  0  0  0  0  0
   57.7500   59.0400  117.0400 H   0  0  0  0  0  0  0  0  0  0  0  0
   57.0200   61.5800  117.7000 H   0  0  0  0  0  0  0  0  0  0  0  0
   53.0700   61.2700  116.9000 H   0  0  0  0  0  0  0  0  0  0  0  0
   53.9600   62.0900  119.8300 H   0  0  0  0  0  0  0  0  0  0  0  0
   52.3400   62.6300  119.0100 H   0  0  0  0  0  0  0  0  0  0  0  0
   59.6800   62.7800  117.5500 H   0  0  0  0  0  0  0  0  0  0  0  0
   61.4300   62.7900  117.2200 H   0  0  0  0  0  0  0  0  0  0  0  0
   60.8100   63.1900  118.8600 H   0  0  0  0  0  0  0  0  0  0  0  0
  2  1  2  0  0  0  0
  3  2  2  0  0  0  0
  4  1  1  0  0  0  0
  4 15  1  1  0  0  0
  5 16  1  0  0  0  0
  5  4  1  0  0  0  0
  6  5  1  0  0  0  0
  7  6  1  0  0  0  0
  8  7  2  0  0  0  0
  9  7  1  0  0  0  0
  9 10  1  0  0  0  0
 10 21  1  0  0  0  0
 10 20  1  0  0  0  0
 11 12  1  0  0  0  0
 11  4  1  0  0  0  0
 12 14  2  0  0  0  0
 13 12  1  0  0  0  0
 13 24  1  0  0  0  0
 17  5  1  0  0  0  0
 18  6  1  0  0  0  0
 19  9  1  0  0  0  0
 22 13  1  0  0  0  0
 23 13  1  0  0  0  0
M  END
