fraglig_572_min_6PQL_A_2.75019_rhidx
 OpenBabel03222614283D

 11 10  0  0  0  0  0  0  0  0999 V2000
   56.9600   58.9500  117.9000 C   0  0  0  0  0  0  0  0  0  0  0  0
   55.8800   59.4400  117.8800 C   0  0  0  0  0  0  0  0  0  0  0  0
   54.6500   60.0000  117.8700 N   0  0  0  0  0  0  0  0  0  0  0  0
   54.4000   61.3100  118.0900 C   0  0  0  0  0  0  0  0  0  0  0  0
   54.1700   62.4600  118.2900 C   0  0  0  0  0  0  0  0  0  0  0  0
   58.0600   58.4500  117.9400 C   0  0  0  0  0  0  0  0  0  0  0  0
   59.1400   57.9600  117.9700 C   0  0  0  0  0  0  0  0  0  0  0  0
   60.3100   57.3400  117.9400 O   0  0  0  0  0  0  0  0  0  0  0  0
   60.9900   57.4300  119.0600 C   0  0  0  0  0  0  0  0  0  0  0  0
   61.5900   57.5000  120.0700 O   0  0  0  0  0  0  0  0  0  0  0  0
   53.8600   59.3700  117.9400 H   0  0  0  0  0  0  0  0  0  0  0  0
  1  6  1  0  0  0  0
  2  1  3  0  0  0  0
  3  2  1  0  0  0  0
  3 11  1  0  0  0  0
  3  4  1  0  0  0  0
  4  5  3  0  0  0  0
  6  7  3  0  0  0  0
  8  7  1  0  0  0  0
  8  9  1  0  0  0  0
  9 10  1  0  0  0  0
M  END
