fraglig_354_min_6PQL_A_2.59506_rhidx
 OpenBabel03222614283D

 11 11  0  0  0  0  0  0  0  0999 V2000
   55.9700   59.5400  116.9000 C   0  0  0  0  0  0  0  0  0  0  0  0
   56.4400   60.7600  117.2700 C   0  0  0  0  0  0  0  0  0  0  0  0
   57.5500   61.0600  117.7200 C   0  0  0  0  0  0  0  0  0  0  0  0
   58.6000   60.2300  117.9800 C   0  0  0  0  0  0  0  0  0  0  0  0
   58.1300   59.0000  117.6100 C   0  0  0  0  0  0  0  0  0  0  0  0
   57.0200   58.7100  117.1700 C   0  0  0  0  0  0  0  0  0  0  0  0
   60.2900   60.6800  117.6500 S   0  0  0  0  0  0  0  0  0  0  0  0
   60.2300   62.3300  117.9700 C   0  0  0  0  0  0  0  0  0  0  0  0
   60.2200   63.4800  118.2100 O   0  0  0  0  0  0  0  0  0  0  0  0
   54.7600   59.2000  117.3100 C   0  0  0  0  0  0  0  0  0  0  0  0
   53.6600   58.9200  117.6700 C   0  0  0  0  0  0  0  0  0  0  0  0
  1  6  2  0  0  0  0
  1  2  1  0  0  0  0
  1 10  1  0  0  0  0
  2  3  2  0  0  0  0
  3  4  1  0  0  0  0
  5  4  2  0  0  0  0
  6  5  1  0  0  0  0
  7  8  1  0  0  0  0
  7  4  1  0  0  0  0
  8  9  1  0  0  0  0
 10 11  3  0  0  0  0
M  END
