fraglig_285_min_6PQL_A_2.5029_rhidx
 OpenBabel03222614283D

  9  8  0  0  0  0  0  0  0  0999 V2000
   57.2900   60.5400  117.8000 C   0  0  0  0  0  0  0  0  0  0  0  0
   56.6900   59.2600  118.1700 C   0  0  0  0  0  0  0  0  0  0  0  0
   55.5500   59.1800  118.5800 O   0  0  0  0  0  0  0  0  0  0  0  0
   57.4600   58.1100  118.0800 N   0  0  0  0  0  0  0  0  0  0  0  0
   58.7800   58.0900  117.9300 C   0  0  0  0  0  0  0  0  0  0  0  0
   60.0900   58.0600  117.8200 O   0  0  0  0  0  0  0  0  0  0  0  0
   60.7000   57.5300  118.8400 C   0  0  0  0  0  0  0  0  0  0  0  0
   61.2300   57.0300  119.7800 O   0  0  0  0  0  0  0  0  0  0  0  0
   57.0200   57.2100  118.2400 H   0  0  0  0  0  0  0  0  0  0  0  0
  1  2  1  0  0  0  0
  2  3  2  0  0  0  0
  4  2  1  0  0  0  0
  4  9  1  0  0  0  0
  5  4  1  0  0  0  0
  6  5  1  0  0  0  0
  6  7  1  0  0  0  0
  7  8  1  0  0  0  0
M  END
