fraglig_490_min_6PQL_A_2.55422_rhidx
 OpenBabel03222614283D

 12 12  0  0  1  0  0  0  0  0999 V2000
   57.5400   60.4900  118.0700 C   0  0  0  0  0  0  0  0  0  0  0  0
   58.5800   59.8000  118.4800 C   0  0  1  0  0  0  0  0  0  0  0  0
   58.4600   58.5300  118.8800 C   0  0  0  0  0  0  0  0  0  0  0  0
   59.3700   57.7600  119.0000 C   0  0  0  0  0  0  0  0  0  0  0  0
   60.7100   57.7600  118.8200 O   0  0  0  0  0  0  0  0  0  0  0  0
   60.8000   59.0500  118.3900 C   0  0  0  0  0  0  0  0  0  0  0  0
   60.0500   60.1400  118.1400 C   0  0  0  0  0  0  0  0  0  0  0  0
   60.4700   61.2300  117.7500 O   0  0  0  0  0  0  0  0  0  0  0  0
   56.4900   61.0500  117.8300 C   0  0  0  0  0  0  0  0  0  0  0  0
   55.3900   61.5100  117.7200 C   0  0  0  0  0  0  0  0  0  0  0  0
   54.2400   61.9200  117.7400 C   0  0  0  0  0  0  0  0  0  0  0  0
   53.1200   62.3200  117.8100 C   0  0  0  0  0  0  0  0  0  0  0  0
  2  1  1  6  0  0  0
  2  3  1  0  0  0  0
  3  4  2  0  0  0  0
  5  4  1  0  0  0  0
  6  5  1  0  0  0  0
  7  6  1  0  0  0  0
  7  2  1  0  0  0  0
  8  7  2  0  0  0  0
  9  1  1  0  0  0  0
 10 11  1  0  0  0  0
 10  9  3  0  0  0  0
 11 12  3  0  0  0  0
M  END
