fraglig_128_min_6PQL_A_2.69574_rhidx
 OpenBabel03222614283D

 11 10  0  0  0  0  0  0  0  0999 V2000
   57.2000   58.0200  118.0700 C   0  0  0  0  0  0  0  0  0  0  0  0
   58.2800   57.6600  118.4500 C   0  0  0  0  0  0  0  0  0  0  0  0
   55.9500   58.6400  117.6700 C   0  0  0  0  0  0  0  0  0  0  0  0
   54.8900   58.0600  117.8600 O   0  0  0  0  0  0  0  0  0  0  0  0
   56.0300   59.9800  117.4300 O   0  0  0  0  0  0  0  0  0  0  0  0
   55.0000   60.8000  117.5500 C   0  0  0  0  0  0  0  0  0  0  0  0
   54.1100   61.5800  117.7400 C   0  0  0  0  0  0  0  0  0  0  0  0
   59.6300   57.4000  118.9000 C   0  0  0  0  0  0  0  0  0  0  0  0
   60.3100   56.4600  118.5400 O   0  0  0  0  0  0  0  0  0  0  0  0
   60.2200   58.7300  119.9600 S   0  0  0  0  0  0  0  0  0  0  0  0
   61.8300   58.7400  119.4700 C   0  0  0  0  0  0  0  0  0  0  0  0
  1  2  3  0  0  0  0
  2  8  1  0  0  0  0
  3  4  2  0  0  0  0
  3  1  1  0  0  0  0
  5  6  1  0  0  0  0
  5  3  1  0  0  0  0
  6  7  3  0  0  0  0
  8 10  1  0  0  0  0
  9  8  2  0  0  0  0
 11 10  1  0  0  0  0
M  END
