fraglig_968_min_6PQL_A_2.53696_rhidx
 OpenBabel03222614283D

 16 16  0  0  1  0  0  0  0  0999 V2000
   58.5200   58.1300  117.5900 O   0  0  0  0  0  0  0  0  0  0  0  0
   59.4400   57.5100  118.3100 C   0  0  0  0  0  0  0  0  0  0  0  0
   60.3600   56.8400  118.9400 C   0  0  2  0  0  0  0  0  0  0  0  0
   61.5200   57.6300  119.9800 S   0  0  0  0  0  0  0  0  0  0  0  0
   61.3400   59.2900  119.6400 C   0  0  0  0  0  0  0  0  0  0  0  0
   60.7200   55.7600  118.3000 C   0  0  0  0  0  0  0  0  0  0  0  0
   61.0300   54.7000  117.5700 O   0  0  0  0  0  0  0  0  0  0  0  0
   58.0600   59.2300  118.1200 C   0  0  0  0  0  0  0  0  0  0  0  0
   57.5500   60.3200  118.6300 C   0  0  0  0  0  0  0  0  0  0  0  0
   56.6500   60.1200  119.6400 C   0  0  0  0  0  0  0  0  0  0  0  0
   55.4700   60.4800  119.7100 C   0  0  0  0  0  0  0  0  0  0  0  0
   54.7600   61.2100  118.8000 C   0  0  0  0  0  0  0  0  0  0  0  0
   55.6700   61.4500  117.8100 C   0  0  0  0  0  0  0  0  0  0  0  0
   53.5200   62.5400  119.3500 B   0  0  0  0  0  0  0  0  0  0  0  0
   56.8400   61.0800  117.7500 C   0  0  0  0  0  0  0  0  0  0  0  0
   60.4100   53.9600  117.8000 H   0  0  0  0  0  0  0  0  0  0  0  0
  1  8  1  0  0  0  0
  1  2  1  0  0  0  0
  3  2  1  6  0  0  0
  3  6  1  0  0  0  0
  3  4  1  0  0  0  0
  5  4  1  0  0  0  0
  7 16  1  0  0  0  0
  7  6  1  0  0  0  0
  8  9  1  0  0  0  0
  9 10  1  0  0  0  0
 10 11  2  0  0  0  0
 12 14  1  0  0  0  0
 12 11  1  0  0  0  0
 13 12  2  0  0  0  0
 15 13  1  0  0  0  0
 15  9  2  0  0  0  0
M  END
