fraglig_227_min_6PQL_A_2.69202_rhidx
 OpenBabel03222614283D

 11 12  0  0  1  0  0  0  0  0999 V2000
   59.3800   59.8700  119.4800 C   0  0  2  0  0  0  0  0  0  0  0  0
   59.5000   60.7900  118.5600 C   0  0  2  0  0  0  0  0  0  0  0  0
   60.4800   62.0100  117.9400 S   0  0  0  0  0  0  0  0  0  0  0  0
   61.0400   61.2100  119.3000 C   0  0  1  0  0  0  0  0  0  0  0  0
   60.7200   60.2000  120.2400 N   0  0  0  0  0  4  0  0  0  0  0  0
   59.1400   58.6500  119.0300 C   0  0  0  0  0  0  0  0  0  0  0  0
   58.9200   57.4500  118.5600 O   0  0  0  0  0  0  0  0  0  0  0  0
   59.9800   56.6700  118.6900 C   0  0  0  0  0  0  0  0  0  0  0  0
   60.9300   56.0100  118.8300 O   0  0  0  0  0  0  0  0  0  0  0  0
   60.6800   60.6700  121.1800 H   0  0  0  0  0  0  0  0  0  0  0  0
   61.4700   59.5000  120.3100 H   0  0  0  0  0  0  0  0  0  0  0  0
  1  6  1  6  0  0  0
  1  5  1  0  0  0  0
  2  3  1  6  0  0  0
  2  4  1  0  0  0  0
  2  1  1  0  0  0  0
  4  3  1  1  0  0  0
  4  5  1  0  0  0  0
  5 11  1  0  0  0  0
  5 10  1  0  0  0  0
  7  8  1  0  0  0  0
  7  6  1  0  0  0  0
  8  9  1  0  0  0  0
M  END
