fraglig_168_min_6PQL_A_2.77241_rhidx
 OpenBabel03222614283D

  8  8  0  0  0  0  0  0  0  0999 V2000
   57.0400   59.4000  118.0700 N   0  0  0  0  0  0  0  0  0  0  0  0
   56.8100   60.7800  117.9800 C   0  0  0  0  0  0  0  0  0  0  0  0
   55.8400   61.4900  117.6600 N   0  0  0  0  0  0  0  0  0  0  0  0
   54.9100   60.7400  117.3500 C   0  0  0  0  0  0  0  0  0  0  0  0
   54.8000   59.5200  117.3100 C   0  0  0  0  0  0  0  0  0  0  0  0
   55.7900   58.9200  117.6400 C   0  0  0  0  0  0  0  0  0  0  0  0
   58.2200   58.8400  117.7300 C   0  0  0  0  0  0  0  0  0  0  0  0
   59.2500   58.3600  117.4600 O   0  0  0  0  0  0  0  0  0  0  0  0
  2  1  1  0  0  0  0
  3  2  1  0  0  0  0
  4  3  2  0  0  0  0
  5  4  1  0  0  0  0
  5  6  2  0  0  0  0
  6  1  1  0  0  0  0
  7  1  1  0  0  0  0
  8  7  1  0  0  0  0
M  END
