fraglig_16_min_6PQL_A_2.70155_rhidx
 OpenBabel03222614283D

 21 21  0  0  1  0  0  0  0  0999 V2000
   57.1800   58.6600  118.4600 C   0  0  1  0  0  0  0  0  0  0  0  0
   57.9600   57.6200  118.0300 N   0  0  0  0  0  0  0  0  0  0  0  0
   59.1900   57.4400  118.7800 C   0  0  0  0  0  0  0  0  0  0  0  0
   59.2900   58.7600  119.4500 N   0  0  0  0  0  0  0  0  0  0  0  0
   59.9000   58.7900  120.8000 C   0  0  0  0  0  0  0  0  0  0  0  0
   58.0100   59.3900  119.3100 N   0  0  0  0  0  0  0  0  0  0  0  0
   56.2800   59.4000  117.5000 C   0  0  0  0  0  0  0  0  0  0  0  0
   54.9800   60.1500  118.5800 S   0  0  0  0  0  0  0  0  0  0  0  0
   54.4400   61.5800  117.5500 C   0  0  0  0  0  0  0  0  0  0  0  0
   57.6100   56.9500  117.3500 H   0  0  0  0  0  0  0  0  0  0  0  0
   60.0700   57.2600  118.1400 H   0  0  0  0  0  0  0  0  0  0  0  0
   59.0600   56.6400  119.5200 H   0  0  0  0  0  0  0  0  0  0  0  0
   60.7000   58.0400  120.8900 H   0  0  0  0  0  0  0  0  0  0  0  0
   59.1600   58.6100  121.5900 H   0  0  0  0  0  0  0  0  0  0  0  0
   60.3700   59.7700  120.9800 H   0  0  0  0  0  0  0  0  0  0  0  0
   58.0000   60.3900  119.1200 H   0  0  0  0  0  0  0  0  0  0  0  0
   55.8300   58.7200  116.7600 H   0  0  0  0  0  0  0  0  0  0  0  0
   56.8400   60.1800  116.9700 H   0  0  0  0  0  0  0  0  0  0  0  0
   53.5700   62.0600  118.0100 H   0  0  0  0  0  0  0  0  0  0  0  0
   54.1600   61.2500  116.5400 H   0  0  0  0  0  0  0  0  0  0  0  0
   55.2600   62.3100  117.4800 H   0  0  0  0  0  0  0  0  0  0  0  0
  1  7  1  6  0  0  0
  1  6  1  0  0  0  0
  2  1  1  0  0  0  0
  2  3  1  0  0  0  0
  3  4  1  0  0  0  0
  3 12  1  0  0  0  0
  4  5  1  0  0  0  0
  5 13  1  0  0  0  0
  5 15  1  0  0  0  0
  5 14  1  0  0  0  0
  6  4  1  0  0  0  0
  7  8  1  0  0  0  0
  9 19  1  0  0  0  0
  9  8  1  0  0  0  0
 10  2  1  0  0  0  0
 11  3  1  0  0  0  0
 16  6  1  0  0  0  0
 17  7  1  0  0  0  0
 18  7  1  0  0  0  0
 20  9  1  0  0  0  0
 21  9  1  0  0  0  0
M  END
