fraglig_848_min_6PQL_A_2.54546_rhidx
 OpenBabel03222614283D

 16 16  0  0  0  0  0  0  0  0999 V2000
   60.7800   58.0500  119.2700 C   0  0  0  0  0  0  0  0  0  0  0  0
   61.4300   57.0200  119.2500 O   0  0  0  0  0  0  0  0  0  0  0  0
   59.3300   57.9300  119.4100 C   0  0  0  0  0  0  0  0  0  0  0  0
   57.3900   58.2400  118.4200 C   0  0  0  0  0  0  0  0  0  0  0  0
   56.5900   58.6400  116.9900 S   0  0  0  0  0  0  0  0  0  0  0  0
   55.4800   59.7800  117.5300 C   0  0  0  0  0  0  0  0  0  0  0  0
   54.6200   60.5900  117.7800 C   0  0  0  0  0  0  0  0  0  0  0  0
   53.7600   61.4000  117.9700 C   0  0  0  0  0  0  0  0  0  0  0  0
   61.3700   59.2700  119.1900 O   0  0  0  0  0  0  0  0  0  0  0  0
   60.6700   60.4600  119.3300 C   0  0  0  0  0  0  0  0  0  0  0  0
   59.8400   60.8900  118.3400 C   0  0  0  0  0  0  0  0  0  0  0  0
   59.6500   61.9400  117.7900 C   0  0  0  0  0  0  0  0  0  0  0  0
   58.0300   57.9000  119.5100 O   0  0  0  0  0  0  0  0  0  0  0  0
   60.3700   62.8300  118.1700 C   0  0  0  0  0  0  0  0  0  0  0  0
   61.3600   62.9300  119.1100 O   0  0  0  0  0  0  0  0  0  0  0  0
   61.3300   61.6200  119.5400 C   0  0  0  0  0  0  0  0  0  0  0  0
  1  3  1  0  0  0  0
  2  1  2  0  0  0  0
  3 13  1  0  0  0  0
  4 13  1  0  0  0  0
  5  6  1  0  0  0  0
  5  4  1  0  0  0  0
  6  7  1  0  0  0  0
  7  8  3  0  0  0  0
  9  1  1  0  0  0  0
  9 10  1  0  0  0  0
 10 16  2  0  0  0  0
 11 10  1  0  0  0  0
 12 14  1  0  0  0  0
 12 11  2  0  0  0  0
 14 15  1  0  0  0  0
 15 16  1  0  0  0  0
M  END
