fraglig_501_min_6PQL_A_2.51591_rhidx
 OpenBabel03222614283D

 30 30  0  0  1  0  0  0  0  0999 V2000
   56.2800   61.5600  118.3400 C   0  0  0  0  0  0  0  0  0  0  0  0
   54.8300   61.3500  117.7900 C   0  0  2  0  0  0  0  0  0  0  0  0
   53.5400   62.1600  118.8900 S   0  0  0  0  0  0  0  0  0  0  0  0
   54.4900   63.1700  120.1100 C   0  0  0  0  0  0  0  0  0  0  0  0
   54.4400   59.8800  117.4400 C   0  0  0  0  0  0  0  0  0  0  0  0
   53.3200   59.4500  118.2100 O   0  0  0  0  0  0  0  0  0  0  0  0
   57.3400   60.5500  117.8700 C   0  0  0  0  0  0  0  0  0  0  0  0
   58.7800   61.0100  118.2200 C   0  0  0  0  0  0  0  0  0  0  0  0
   59.8700   59.9100  118.0400 C   0  0  0  0  0  0  0  0  0  0  0  0
   59.3400   58.4800  117.8800 C   0  0  2  0  0  0  0  0  0  0  0  0
   59.4000   57.5100  119.0300 C   0  0  0  0  0  0  0  0  0  0  0  0
   60.3200   57.4300  117.9200 O   0  0  0  0  0  0  0  0  0  0  0  0
   56.2800   61.4900  119.4200 H   0  0  0  0  0  0  0  0  0  0  0  0
   56.6000   62.5700  118.0700 H   0  0  0  0  0  0  0  0  0  0  0  0
   54.7900   61.9000  116.8300 H   0  0  0  0  0  0  0  0  0  0  0  0
   53.8000   63.8100  120.6700 H   0  0  0  0  0  0  0  0  0  0  0  0
   55.2300   63.7900  119.6000 H   0  0  0  0  0  0  0  0  0  0  0  0
   55.0000   62.5000  120.8200 H   0  0  0  0  0  0  0  0  0  0  0  0
   55.2600   59.1800  117.6000 H   0  0  0  0  0  0  0  0  0  0  0  0
   54.2100   59.8200  116.3600 H   0  0  0  0  0  0  0  0  0  0  0  0
   52.8100   60.2900  118.3100 H   0  0  0  0  0  0  0  0  0  0  0  0
   57.1400   59.6200  118.3900 H   0  0  0  0  0  0  0  0  0  0  0  0
   57.2600   60.3700  116.7900 H   0  0  0  0  0  0  0  0  0  0  0  0
   58.8000   61.3600  119.2600 H   0  0  0  0  0  0  0  0  0  0  0  0
   59.0400   61.8800  117.6000 H   0  0  0  0  0  0  0  0  0  0  0  0
   60.5700   59.9700  118.8800 H   0  0  0  0  0  0  0  0  0  0  0  0
   60.4700   60.1600  117.1500 H   0  0  0  0  0  0  0  0  0  0  0  0
   58.5800   58.3500  117.1200 H   0  0  0  0  0  0  0  0  0  0  0  0
   58.6600   56.7200  119.0800 H   0  0  0  0  0  0  0  0  0  0  0  0
   59.8700   57.8000  119.9700 H   0  0  0  0  0  0  0  0  0  0  0  0
  1 13  1  0  0  0  0
  2 15  1  6  0  0  0
  2  1  1  0  0  0  0
  2  3  1  0  0  0  0
  3  4  1  0  0  0  0
  4 16  1  0  0  0  0
  4 18  1  0  0  0  0
  5 19  1  0  0  0  0
  5  2  1  0  0  0  0
  5  6  1  0  0  0  0
  6 21  1  0  0  0  0
  7  8  1  0  0  0  0
  7  1  1  0  0  0  0
  7 22  1  0  0  0  0
  8 24  1  0  0  0  0
  9  8  1  0  0  0  0
  9 26  1  0  0  0  0
 10 28  1  6  0  0  0
 10 12  1  0  0  0  0
 10  9  1  0  0  0  0
 10 11  1  0  0  0  0
 11 29  1  0  0  0  0
 11 30  1  0  0  0  0
 12 11  1  0  0  0  0
 14  1  1  0  0  0  0
 17  4  1  0  0  0  0
 20  5  1  0  0  0  0
 23  7  1  0  0  0  0
 25  8  1  0  0  0  0
 27  9  1  0  0  0  0
M  END
