fraglig_35_min_6PQL_A_2.61488_rhidx
 OpenBabel03222614283D

  8  7  0  0  1  0  0  0  0  0999 V2000
   56.8900   60.1000  117.8400 C   0  0  0  0  0  0  0  0  0  0  0  0
   55.6100   60.2600  117.6000 C   0  0  1  0  0  0  0  0  0  0  0  0
   54.6400   58.8800  117.0800 C   0  0  0  0  0  0  0  0  0  0  0  0
   58.1700   59.9100  118.0900 O   0  0  0  0  0  0  0  0  0  0  0  0
   58.9400   60.9900  118.0500 C   0  0  0  0  0  0  0  0  0  0  0  0
   59.6200   61.9400  118.0100 O   0  0  0  0  0  0  0  0  0  0  0  0
   55.0100   61.3000  118.1400 C   0  0  0  0  0  0  0  0  0  0  0  0
   54.2500   62.5500  118.8700 C   0  0  0  0  0  0  0  0  0  0  0  0
  1  4  1  0  0  0  0
  2  3  1  1  0  0  0
  2  1  1  0  0  0  0
  2  7  1  0  0  0  0
  5  4  1  0  0  0  0
  6  5  1  0  0  0  0
  7  8  1  0  0  0  0
M  END
