fraglig_28_min_6PQL_A_2.6109_rhidx
 OpenBabel03222614283D

 11 10  0  0  0  0  0  0  0  0999 V2000
   58.6100   59.2000  118.2900 C   0  0  0  0  0  0  0  0  0  0  0  0
   57.5200   59.5300  117.9300 C   0  0  0  0  0  0  0  0  0  0  0  0
   56.3500   60.0100  117.5500 C   0  0  0  0  0  0  0  0  0  0  0  0
   56.2300   61.3100  117.4500 C   0  0  0  0  0  0  0  0  0  0  0  0
   55.2600   59.2800  117.6300 C   0  0  0  0  0  0  0  0  0  0  0  0
   54.2600   58.6200  117.6800 C   0  0  0  0  0  0  0  0  0  0  0  0
   59.7300   58.9700  118.6500 C   0  0  0  0  0  0  0  0  0  0  0  0
   60.9900   58.8400  119.0700 N   0  0  0  0  0  0  0  0  0  0  0  0
   61.8200   59.8800  118.8900 C   0  0  0  0  0  0  0  0  0  0  0  0
   62.5300   60.7900  118.7500 O   0  0  0  0  0  0  0  0  0  0  0  0
   61.0600   58.5200  120.0200 H   0  0  0  0  0  0  0  0  0  0  0  0
  1  7  1  0  0  0  0
  2  1  3  0  0  0  0
  3  5  1  0  0  0  0
  3  2  1  0  0  0  0
  4  3  2  0  0  0  0
  5  6  3  0  0  0  0
  7  8  1  0  0  0  0
  8 11  1  0  0  0  0
  9  8  1  0  0  0  0
 10  9  1  0  0  0  0
M  END
