fraglig_436_min_6PQL_A_2.54702_rhidx
 OpenBabel03222614283D

 14 13  0  0  1  0  0  0  0  0999 V2000
   56.6300   59.7300  117.0800 N   0  0  0  0  0  4  0  0  0  0  0  0
   55.4500   59.4100  117.9800 C   0  0  2  0  0  0  0  0  0  0  0  0
   54.8900   58.2600  117.7000 C   0  0  0  0  0  0  0  0  0  0  0  0
   54.6100   60.4000  118.1500 C   0  0  0  0  0  0  0  0  0  0  0  0
   53.5300   61.6800  118.3300 S   0  0  0  0  0  0  0  0  0  0  0  0
   54.2400   62.4300  119.6600 C   0  0  0  0  0  0  0  0  0  0  0  0
   54.6800   62.9200  120.6700 C   0  0  0  0  0  0  0  0  0  0  0  0
   57.9400   59.7200  117.6400 C   0  0  0  0  0  0  0  0  0  0  0  0
   59.0900   59.8000  118.0000 C   0  0  0  0  0  0  0  0  0  0  0  0
   60.7000   60.2100  118.3200 S   0  0  0  0  0  0  0  0  0  0  0  0
   61.3800   58.8000  118.9700 C   0  0  0  0  0  0  0  0  0  0  0  0
   61.8600   57.8300  119.4100 O   0  0  0  0  0  0  0  0  0  0  0  0
   56.4700   60.6600  116.6500 H   0  0  0  0  0  0  0  0  0  0  0  0
   56.6100   59.0700  116.2800 H   0  0  0  0  0  0  0  0  0  0  0  0
  1  8  1  0  0  0  0
  1  2  1  0  0  0  0
  2  3  1  6  0  0  0
  2  4  1  0  0  0  0
  4  5  1  0  0  0  0
  5  6  1  0  0  0  0
  6  7  3  0  0  0  0
  8  9  3  0  0  0  0
  9 10  1  0  0  0  0
 10 11  1  0  0  0  0
 11 12  1  0  0  0  0
 13  1  1  0  0  0  0
 14  1  1  0  0  0  0
M  END
