fraglig_568_min_6PQL_A_2.53325_rhidx
 OpenBabel03222614283D

 16 16  0  0  1  0  0  0  0  0999 V2000
   57.5000   60.4300  118.6700 C   0  0  0  0  0  0  0  0  0  0  0  0
   58.4900   60.1000  119.4900 O   0  0  0  0  0  0  0  0  0  0  0  0
   59.7400   59.8700  118.9900 C   0  0  0  0  0  0  0  0  0  0  0  0
   60.2300   60.5100  117.9400 C   0  0  0  0  0  0  0  0  0  0  0  0
   60.4200   58.8900  119.5100 C   0  0  0  0  0  0  0  0  0  0  0  0
   61.2300   57.5700  120.1700 S   0  0  0  0  0  0  0  0  0  0  0  0
   60.8300   56.4600  118.9700 C   0  0  0  0  0  0  0  0  0  0  0  0
   60.5500   55.7000  118.1200 O   0  0  0  0  0  0  0  0  0  0  0  0
   56.5200   60.7300  117.8700 C   0  0  1  0  0  0  0  0  0  0  0  0
   55.5900   59.7900  117.6700 C   0  0  0  0  0  0  0  0  0  0  0  0
   54.3900   59.7100  117.7600 C   0  0  0  0  0  0  0  0  0  0  0  0
   53.8300   60.7100  118.1100 C   0  0  0  0  0  0  0  0  0  0  0  0
   54.3100   62.0500  118.4500 N   0  0  0  0  0  4  0  0  0  0  0  0
   55.7300   61.7600  118.2300 C   0  0  0  0  0  0  0  0  0  0  0  0
   54.1300   62.3100  119.4200 H   0  0  0  0  0  0  0  0  0  0  0  0
   53.9500   62.7500  117.7800 H   0  0  0  0  0  0  0  0  0  0  0  0
  1  2  1  0  0  0  0
  3  2  1  0  0  0  0
  3  5  1  0  0  0  0
  4  3  2  0  0  0  0
  5  6  1  0  0  0  0
  7  6  1  0  0  0  0
  8  7  1  0  0  0  0
  9 14  1  0  0  0  0
  9  1  1  1  0  0  0
 10 11  1  0  0  0  0
 10  9  1  0  0  0  0
 11 12  2  0  0  0  0
 12 13  1  0  0  0  0
 13 15  1  0  0  0  0
 14 13  1  0  0  0  0
 16 13  1  0  0  0  0
M  END
