fraglig_56_min_6PQL_A_2.53236_rhidx
 OpenBabel03222614283D

  9  9  0  0  0  0  0  0  0  0999 V2000
   58.6400   58.3300  118.8400 C   0  0  0  0  0  0  0  0  0  0  0  0
   59.5800   58.7400  119.5900 C   0  0  0  0  0  0  0  0  0  0  0  0
   60.9200   58.0000  120.1400 S   0  0  0  0  0  0  0  0  0  0  0  0
   60.2000   56.7700  119.2000 N   0  0  0  0  0  0  0  0  0  0  0  0
   59.0700   57.0200  118.5900 N   0  0  0  0  0  0  0  0  0  0  0  0
   57.5400   58.9600  118.3300 C   0  0  0  0  0  0  0  0  0  0  0  0
   56.7200   58.3100  117.5500 C   0  0  0  0  0  0  0  0  0  0  0  0
   57.1900   60.6300  118.7500 S   0  0  0  0  0  0  0  0  0  0  0  0
   56.2900   61.2300  117.4500 C   0  0  0  0  0  0  0  0  0  0  0  0
  1  2  2  0  0  0  0
  2  3  1  0  0  0  0
  4  3  1  0  0  0  0
  5  1  1  0  0  0  0
  5  4  2  0  0  0  0
  6  8  1  0  0  0  0
  6  1  1  0  0  0  0
  7  6  2  0  0  0  0
  9  8  1  0  0  0  0
M  END
