fraglig_797_min_6PQL_A_2.78003_rhidx
 OpenBabel03222614283D

 13 14  0  0  1  0  0  0  0  0999 V2000
   59.2600   59.1700  118.5800 C   0  0  0  0  0  0  0  0  0  0  0  0
   59.7400   58.0200  119.1300 C   0  0  0  0  0  0  0  0  0  0  0  0
   60.8100   57.9100  119.6600 C   0  0  0  0  0  0  0  0  0  0  0  0
   61.5900   58.8400  119.7500 C   0  0  0  0  0  0  0  0  0  0  0  0
   61.3400   59.9300  119.3200 C   0  0  0  0  0  0  0  0  0  0  0  0
   60.1900   60.2700  118.6900 C   0  0  0  0  0  0  0  0  0  0  0  0
   59.9400   62.2400  117.9600 I   0  0  0  0  0  0  0  0  0  0  0  0
   58.0000   59.2000  117.9700 N   0  0  0  0  0  0  0  0  0  0  0  0
   57.0700   60.1000  118.0000 C   0  0  0  0  0  0  0  0  0  0  0  0
   55.8000   59.9500  117.8900 C   0  0  1  0  0  0  0  0  0  0  0  0
   55.1500   60.7300  117.0500 C   0  0  0  0  0  0  0  0  0  0  0  0
   55.8900   58.5500  117.6900 N   0  0  0  0  0  0  0  0  0  0  0  0
   57.1300   58.1500  117.7900 N   0  0  0  0  0  0  0  0  0  0  0  0
  1  6  2  0  0  0  0
  1  2  1  0  0  0  0
  2  3  2  0  0  0  0
  3  4  1  0  0  0  0
  5  4  2  0  0  0  0
  6  5  1  0  0  0  0
  7  6  1  0  0  0  0
  8  9  1  0  0  0  0
  8  1  1  0  0  0  0
 10 11  1  6  0  0  0
 10  9  1  0  0  0  0
 12 13  2  0  0  0  0
 12 10  1  0  0  0  0
 13  8  1  0  0  0  0
M  END
