fraglig_450_min_6PQL_A_2.59934_rhidx
 OpenBabel03222614283D

  9  8  0  0  0  0  0  0  0  0999 V2000
   58.3000   59.8300  118.3900 C   0  0  0  0  0  0  0  0  0  0  0  0
   59.4700   59.6000  118.5600 C   0  0  0  0  0  0  0  0  0  0  0  0
   60.9200   59.4300  118.6700 C   0  0  0  0  0  0  0  0  0  0  0  0
   61.6800   60.2400  118.1700 O   0  0  0  0  0  0  0  0  0  0  0  0
   61.5200   58.1900  119.8300 S   0  0  0  0  0  0  0  0  0  0  0  0
   60.8000   58.8100  121.2200 C   0  0  0  0  0  0  0  0  0  0  0  0
   57.1700   60.1400  118.1600 C   0  0  0  0  0  0  0  0  0  0  0  0
   56.0600   60.5200  117.9100 C   0  0  0  0  0  0  0  0  0  0  0  0
   54.9700   60.9300  117.6300 C   0  0  0  0  0  0  0  0  0  0  0  0
  1  2  1  0  0  0  0
  2  3  1  0  0  0  0
  3  5  1  0  0  0  0
  4  3  2  0  0  0  0
  5  6  1  0  0  0  0
  7  1  3  0  0  0  0
  8  7  1  0  0  0  0
  9  8  3  0  0  0  0
M  END
