fraglig_228_min_6PQL_A_2.56955_rhidx
 OpenBabel03222614283D

 12 12  0  0  0  0  0  0  0  0999 V2000
   56.3400   59.0400  117.0800 C   0  0  0  0  0  0  0  0  0  0  0  0
   55.0300   58.7700  116.8900 C   0  0  0  0  0  0  0  0  0  0  0  0
   54.1300   59.5500  116.9100 C   0  0  0  0  0  0  0  0  0  0  0  0
   54.2800   60.7300  117.1200 C   0  0  0  0  0  0  0  0  0  0  0  0
   55.3500   61.2200  117.3200 C   0  0  0  0  0  0  0  0  0  0  0  0
   56.5400   60.5800  117.3500 C   0  0  0  0  0  0  0  0  0  0  0  0
   57.4900   60.9600  118.1700 C   0  0  0  0  0  0  0  0  0  0  0  0
   58.7500   61.3300  119.2300 S   0  0  0  0  0  0  0  0  0  0  0  0
   59.9700   60.8900  118.1600 C   0  0  0  0  0  0  0  0  0  0  0  0
   60.8200   60.6100  117.4100 O   0  0  0  0  0  0  0  0  0  0  0  0
   57.1400   58.1800  117.6800 C   0  0  0  0  0  0  0  0  0  0  0  0
   57.8700   57.4100  118.2300 C   0  0  0  0  0  0  0  0  0  0  0  0
  1  6  1  0  0  0  0
  1 11  1  0  0  0  0
  2  3  1  0  0  0  0
  2  1  2  0  0  0  0
  3  4  2  0  0  0  0
  4  5  1  0  0  0  0
  5  6  2  0  0  0  0
  6  7  1  0  0  0  0
  7  8  1  0  0  0  0
  9  8  1  0  0  0  0
 10  9  1  0  0  0  0
 11 12  3  0  0  0  0
M  END
