fraglig_500_min_6PQL_A_2.56994_rhidx
 OpenBabel03222614283D

 13 12  0  0  0  0  0  0  0  0999 V2000
   56.5000   59.8300  117.8300 N   0  0  0  0  0  0  0  0  0  0  0  0
   55.3700   59.7100  117.0900 C   0  0  0  0  0  0  0  0  0  0  0  0
   54.9900   58.5400  116.5800 N   0  0  0  0  0  4  0  0  0  0  0  0
   54.5800   60.7600  116.8300 N   0  0  0  0  0  0  0  0  0  0  0  0
   56.7900   60.9100  118.5800 C   0  0  0  0  0  0  0  0  0  0  0  0
   57.0300   61.8400  119.2900 C   0  0  0  0  0  0  0  0  0  0  0  0
   57.2700   62.7800  120.0100 C   0  0  0  0  0  0  0  0  0  0  0  0
   57.3800   58.8400  118.0200 C   0  0  0  0  0  0  0  0  0  0  0  0
   58.1500   57.9700  118.2000 O   0  0  0  0  0  0  0  0  0  0  0  0
   54.2400   58.4900  115.9100 H   0  0  0  0  0  0  0  0  0  0  0  0
   55.5600   57.6900  116.6200 H   0  0  0  0  0  0  0  0  0  0  0  0
   53.6300   60.6700  116.4400 H   0  0  0  0  0  0  0  0  0  0  0  0
   54.9500   61.7000  116.7600 H   0  0  0  0  0  0  0  0  0  0  0  0
  1  8  1  0  0  0  0
  1  5  1  0  0  0  0
  2  1  1  0  0  0  0
  3 11  1  0  0  0  0
  3  2  2  0  0  0  0
  4  2  1  0  0  0  0
  5  6  3  0  0  0  0
  6  7  1  0  0  0  0
  8  9  1  0  0  0  0
 10  3  1  0  0  0  0
 12  4  1  0  0  0  0
 13  4  1  0  0  0  0
M  END
