fraglig_151_min_6PQL_A_2.58627_rhidx
 OpenBabel03222614283D

 11 11  0  0  0  0  0  0  0  0999 V2000
   57.8100   59.2300  117.9400 C   0  0  0  0  0  0  0  0  0  0  0  0
   58.7200   58.6200  118.4200 C   0  0  0  0  0  0  0  0  0  0  0  0
   59.8300   57.8700  119.0100 C   0  0  0  0  0  0  0  0  0  0  0  0
   60.0300   56.7000  118.7300 O   0  0  0  0  0  0  0  0  0  0  0  0
   61.1400   58.9300  119.6300 S   0  0  0  0  0  0  0  0  0  0  0  0
   60.9600   58.6900  121.2900 C   0  0  0  0  0  0  0  0  0  0  0  0
   56.8000   59.9200  117.3800 N   0  0  0  0  0  0  0  0  0  0  0  0
   55.5000   59.4500  117.3500 C   0  0  0  0  0  0  0  0  0  0  0  0
   54.4400   59.9000  117.7100 N   0  0  0  0  0  0  0  0  0  0  0  0
   54.9900   60.9000  118.0600 C   0  0  0  0  0  0  0  0  0  0  0  0
   56.1700   60.9700  117.9300 C   0  0  0  0  0  0  0  0  0  0  0  0
  1  2  3  0  0  0  0
  2  3  1  0  0  0  0
  3  5  1  0  0  0  0
  4  3  2  0  0  0  0
  5  6  1  0  0  0  0
  7 11  1  0  0  0  0
  7  1  1  0  0  0  0
  8  7  1  0  0  0  0
  8  9  1  0  0  0  0
  9 10  2  0  0  0  0
 11 10  1  0  0  0  0
M  END
