fraglig_271_min_6PQL_A_2.5712_rhidx
 OpenBabel03222614283D

 24 24  0  0  1  0  0  0  0  0999 V2000
   60.3300   60.1000  118.3300 C   0  0  0  0  0  0  0  0  0  0  0  0
   60.4100   58.5900  118.2100 C   0  0  0  0  0  0  0  0  0  0  0  0
   60.1900   58.0300  117.1600 O   0  0  0  0  0  0  0  0  0  0  0  0
   60.7700   57.6300  119.7100 S   0  0  0  0  0  0  0  0  0  0  0  0
   60.0900   58.6200  121.1200 C   0  0  0  0  0  0  0  0  0  0  0  0
   58.9300   60.7100  118.1000 C   0  0  0  0  0  0  0  0  0  0  0  0
   57.7100   59.9200  118.5700 N   0  0  0  0  0  4  0  0  0  0  0  0
   56.7100   59.6500  117.4700 C   0  0  1  0  0  0  0  0  0  0  0  0
   57.3400   58.4900  118.1800 C   0  0  0  0  0  0  0  0  0  0  0  0
   55.3100   60.1500  117.7900 C   0  0  0  0  0  0  0  0  0  0  0  0
   60.9900   60.5000  117.5400 H   0  0  0  0  0  0  0  0  0  0  0  0
   60.7800   60.4500  119.2600 H   0  0  0  0  0  0  0  0  0  0  0  0
   60.4100   58.1600  122.0600 H   0  0  0  0  0  0  0  0  0  0  0  0
   59.0000   58.5900  121.0600 H   0  0  0  0  0  0  0  0  0  0  0  0
   60.4400   59.6600  121.1200 H   0  0  0  0  0  0  0  0  0  0  0  0
   58.7900   60.8800  117.0300 H   0  0  0  0  0  0  0  0  0  0  0  0
   58.8900   61.6900  118.5900 H   0  0  0  0  0  0  0  0  0  0  0  0
   57.2800   60.2800  119.4400 H   0  0  0  0  0  0  0  0  0  0  0  0
   57.0500   59.8700  116.4500 H   0  0  0  0  0  0  0  0  0  0  0  0
   58.0700   57.9000  117.6200 H   0  0  0  0  0  0  0  0  0  0  0  0
   56.7400   57.9100  118.8800 H   0  0  0  0  0  0  0  0  0  0  0  0
   55.0600   60.0500  118.8500 H   0  0  0  0  0  0  0  0  0  0  0  0
   54.5700   59.5900  117.2100 H   0  0  0  0  0  0  0  0  0  0  0  0
   55.2100   61.2100  117.5100 H   0  0  0  0  0  0  0  0  0  0  0  0
  1 12  1  0  0  0  0
  2  1  1  0  0  0  0
  2  4  1  0  0  0  0
  3  2  2  0  0  0  0
  4  5  1  0  0  0  0
  5 13  1  0  0  0  0
  6  1  1  0  0  0  0
  6  7  1  0  0  0  0
  6 17  1  0  0  0  0
  7 18  1  0  0  0  0
  8 19  1  6  0  0  0
  8 10  1  0  0  0  0
  8  9  1  0  0  0  0
  8  7  1  0  0  0  0
  9  7  1  0  0  0  0
  9 21  1  0  0  0  0
 10 22  1  0  0  0  0
 11  1  1  0  0  0  0
 14  5  1  0  0  0  0
 15  5  1  0  0  0  0
 16  6  1  0  0  0  0
 20  9  1  0  0  0  0
 23 10  1  0  0  0  0
 24 10  1  0  0  0  0
M  END
