fraglig_864_min_6PQL_A_2.57211_rhidx
 OpenBabel03222614283D

  9  9  0  0  1  0  0  0  0  0999 V2000
   60.9900   59.8900  118.2800 C   0  0  0  0  0  0  0  0  0  0  0  0
   59.7700   59.5500  118.6300 C   0  0  1  0  0  0  0  0  0  0  0  0
   58.8100   59.8800  117.8600 C   0  0  0  0  0  0  0  0  0  0  0  0
   57.8100   59.1900  117.4200 N   0  0  0  0  0  0  0  0  0  0  0  0
   58.1700   58.0700  118.1300 N   0  0  0  0  0  0  0  0  0  0  0  0
   59.3200   58.2100  118.7400 N   0  0  0  0  0  0  0  0  0  0  0  0
   56.5700   59.6800  117.5400 C   0  0  0  0  0  0  0  0  0  0  0  0
   55.4800   60.1800  117.6900 C   0  0  0  0  0  0  0  0  0  0  0  0
   53.9000   60.9500  117.9800 B   0  0  0  0  0  0  0  0  0  0  0  0
  2  1  1  6  0  0  0
  2  6  1  0  0  0  0
  3  2  1  0  0  0  0
  4  7  1  0  0  0  0
  4  3  1  0  0  0  0
  4  5  1  0  0  0  0
  5  6  2  0  0  0  0
  7  8  3  0  0  0  0
  8  9  1  0  0  0  0
M  END
