fraglig_137_min_6PQL_A_2.53629_rhidx
 OpenBabel03222614283D

 10 10  0  0  0  0  0  0  0  0999 V2000
   58.5800   60.7100  117.8300 C   0  0  0  0  0  0  0  0  0  0  0  0
   59.8700   60.3700  117.9100 N   0  0  0  0  0  0  0  0  0  0  0  0
   60.1700   59.0700  117.8700 C   0  0  0  0  0  0  0  0  0  0  0  0
   60.4100   57.9200  117.8300 O   0  0  0  0  0  0  0  0  0  0  0  0
   57.4100   60.9300  117.7300 C   0  0  0  0  0  0  0  0  0  0  0  0
   56.2300   61.0600  117.6200 C   0  0  0  0  0  0  0  0  0  0  0  0
   54.9200   61.1400  117.4900 C   0  0  0  0  0  0  0  0  0  0  0  0
   54.1300   60.2700  118.3600 C   0  0  0  0  0  0  0  0  0  0  0  0
   54.2300   59.9100  117.1000 C   0  0  0  0  0  0  0  0  0  0  0  0
   60.4700   60.9300  117.3100 H   0  0  0  0  0  0  0  0  0  0  0  0
  1  2  1  0  0  0  0
  3  2  1  0  0  0  0
  4  3  1  0  0  0  0
  5  1  1  0  0  0  0
  6  5  3  0  0  0  0
  7  6  1  0  0  0  0
  7  8  1  0  0  0  0
  9  7  1  0  0  0  0
  9  8  1  0  0  0  0
 10  2  1  0  0  0  0
M  END
