fraglig_651_min_6PQL_A_2.53621_rhidx
 OpenBabel03222614283D

 26 25  0  0  1  0  0  0  0  0999 V2000
   58.4700   58.7700  118.0700 C   0  0  1  0  0  0  0  0  0  0  0  0
   57.1800   59.2800  118.7500 C   0  0  0  0  0  0  0  0  0  0  0  0
   56.0800   59.8000  117.7900 C   0  0  0  0  0  0  0  0  0  0  0  0
   55.8900   61.3400  117.7000 C   0  0  0  0  0  0  0  0  0  0  0  0
   55.8800   62.0700  119.0400 C   0  0  0  0  0  0  0  0  0  0  0  0
   54.8200   62.7000  119.5600 C   0  0  0  0  0  0  0  0  0  0  0  0
   59.3500   59.8700  117.8600 O   0  0  0  0  0  0  0  0  0  0  0  0
   59.1500   57.6400  118.9000 C   0  0  0  0  0  0  0  0  0  0  0  0
   60.8800   57.9800  119.4700 S   0  0  0  0  0  0  0  0  0  0  0  0
   60.5900   58.4600  121.2200 C   0  0  0  0  0  0  0  0  0  0  0  0
   58.2000   58.3300  117.0900 H   0  0  0  0  0  0  0  0  0  0  0  0
   57.4400   60.0100  119.5300 H   0  0  0  0  0  0  0  0  0  0  0  0
   56.7300   58.4400  119.2900 H   0  0  0  0  0  0  0  0  0  0  0  0
   56.2500   59.4200  116.7800 H   0  0  0  0  0  0  0  0  0  0  0  0
   55.1200   59.3600  118.1000 H   0  0  0  0  0  0  0  0  0  0  0  0
   54.9500   61.5400  117.1700 H   0  0  0  0  0  0  0  0  0  0  0  0
   56.6900   61.7600  117.0800 H   0  0  0  0  0  0  0  0  0  0  0  0
   56.8400   62.1100  119.5500 H   0  0  0  0  0  0  0  0  0  0  0  0
   53.8600   62.7300  119.0400 H   0  0  0  0  0  0  0  0  0  0  0  0
   54.9100   63.2500  120.4900 H   0  0  0  0  0  0  0  0  0  0  0  0
   59.9900   59.8500  118.6100 H   0  0  0  0  0  0  0  0  0  0  0  0
   59.1800   56.7300  118.2800 H   0  0  0  0  0  0  0  0  0  0  0  0
   58.5500   57.3900  119.7800 H   0  0  0  0  0  0  0  0  0  0  0  0
   61.5600   58.6700  121.7100 H   0  0  0  0  0  0  0  0  0  0  0  0
   60.1000   57.6400  121.7600 H   0  0  0  0  0  0  0  0  0  0  0  0
   59.9700   59.3600  121.2700 H   0  0  0  0  0  0  0  0  0  0  0  0
  1 11  1  6  0  0  0
  1  2  1  0  0  0  0
  1  8  1  0  0  0  0
  2 13  1  0  0  0  0
  2 12  1  0  0  0  0
  3 15  1  0  0  0  0
  3  2  1  0  0  0  0
  4  3  1  0  0  0  0
  4  5  1  0  0  0  0
  5 18  1  0  0  0  0
  5  6  2  0  0  0  0
  6 20  1  0  0  0  0
  7  1  1  0  0  0  0
  7 21  1  0  0  0  0
  8  9  1  0  0  0  0
  8 23  1  0  0  0  0
  9 10  1  0  0  0  0
 10 26  1  0  0  0  0
 10 24  1  0  0  0  0
 10 25  1  0  0  0  0
 14  3  1  0  0  0  0
 16  4  1  0  0  0  0
 17  4  1  0  0  0  0
 19  6  1  0  0  0  0
 22  8  1  0  0  0  0
M  END
