fraglig_818_min_6PQL_A_2.5393_rhidx
 OpenBabel03222614283D

 23 22  0  0  1  0  0  0  0  0999 V2000
   56.1500   61.1000  117.6700 C   0  0  0  0  0  0  0  0  0  0  0  0
   55.1800   60.0500  117.3200 C   0  0  0  0  0  0  0  0  0  0  0  0
   54.4100   59.2300  117.1100 N   0  0  0  0  0  0  0  0  0  0  0  0
   57.5300   60.5400  118.0700 C   0  0  0  0  0  0  0  0  0  0  0  0
   58.2200   61.5800  118.7600 O   0  0  0  0  0  0  0  0  0  0  0  0
   59.3700   61.2700  119.5300 C   0  0  2  0  0  0  0  0  0  0  0  0
   60.5500   60.7100  118.9300 C   0  0  0  0  0  0  0  0  0  0  0  0
   60.6600   62.5900  119.1100 S   0  0  0  0  0  0  0  0  0  0  0  0
   60.8700   62.8600  117.3300 C   0  0  0  0  0  0  0  0  0  0  0  0
   59.0700   61.1600  121.0200 C   0  0  0  0  0  0  0  0  0  0  0  0
   56.2500   61.7900  116.8200 H   0  0  0  0  0  0  0  0  0  0  0  0
   55.7300   61.6900  118.4900 H   0  0  0  0  0  0  0  0  0  0  0  0
   58.0900   60.2300  117.1700 H   0  0  0  0  0  0  0  0  0  0  0  0
   57.4000   59.6600  118.7200 H   0  0  0  0  0  0  0  0  0  0  0  0
   60.5500   60.4100  117.8900 H   0  0  0  0  0  0  0  0  0  0  0  0
   61.3000   60.2500  119.5700 H   0  0  0  0  0  0  0  0  0  0  0  0
   61.8500   62.4700  119.7700 H   0  0  0  0  0  0  0  0  0  0  0  0
   60.1000   62.2900  116.8100 H   0  0  0  0  0  0  0  0  0  0  0  0
   61.8600   62.5200  117.0200 H   0  0  0  0  0  0  0  0  0  0  0  0
   60.7300   63.9200  117.1100 H   0  0  0  0  0  0  0  0  0  0  0  0
   58.3500   60.3500  121.2100 H   0  0  0  0  0  0  0  0  0  0  0  0
   58.6500   62.1000  121.4000 H   0  0  0  0  0  0  0  0  0  0  0  0
   59.9800   60.9400  121.5900 H   0  0  0  0  0  0  0  0  0  0  0  0
  1  4  1  0  0  0  0
  1 12  1  0  0  0  0
  2  1  1  0  0  0  0
  3  2  3  0  0  0  0
  4 14  1  0  0  0  0
  4  5  1  0  0  0  0
  6  5  1  6  0  0  0
  6 10  1  0  0  0  0
  7  8  1  0  0  0  0
  7  6  1  0  0  0  0
  7 16  1  0  0  0  0
  8 17  1  0  0  0  0
  9  8  1  0  0  0  0
 10 21  1  0  0  0  0
 10 22  1  0  0  0  0
 10 23  1  0  0  0  0
 11  1  1  0  0  0  0
 13  4  1  0  0  0  0
 15  7  1  0  0  0  0
 18  9  1  0  0  0  0
 19  9  1  0  0  0  0
 20  9  1  0  0  0  0
M  END
