fraglig_986_min_6PQL_A_2.53354_rhidx
 OpenBabel03222614283D

 12 12  0  0  1  0  0  0  0  0999 V2000
   61.1600   59.1200  119.7200 C   0  0  0  0  0  0  0  0  0  0  0  0
   60.3000   58.6300  118.8500 C   0  0  2  0  0  0  0  0  0  0  0  0
   59.0900   59.0200  118.9500 C   0  0  0  0  0  0  0  0  0  0  0  0
   57.9900   58.3300  119.0400 N   0  0  0  0  0  0  0  0  0  0  0  0
   58.6500   57.1400  118.8700 N   0  0  0  0  0  0  0  0  0  0  0  0
   59.9500   57.2600  118.8400 N   0  0  0  0  0  0  0  0  0  0  0  0
   56.9200   58.5500  118.2700 C   0  0  0  0  0  0  0  0  0  0  0  0
   55.9400   58.6400  117.5700 C   0  0  0  0  0  0  0  0  0  0  0  0
   54.8100   58.5900  116.7200 N   0  0  0  0  0  4  0  0  0  0  0  0
   54.8300   59.3200  115.9900 H   0  0  0  0  0  0  0  0  0  0  0  0
   53.9300   58.6600  117.2300 H   0  0  0  0  0  0  0  0  0  0  0  0
   54.8800   57.6400  116.2600 H   0  0  0  0  0  0  0  0  0  0  0  0
  2  3  1  0  0  0  0
  2  1  1  1  0  0  0
  3  4  1  0  0  0  0
  5  4  1  0  0  0  0
  6  2  1  0  0  0  0
  6  5  2  0  0  0  0
  7  4  1  0  0  0  0
  8  7  3  0  0  0  0
  9 11  1  0  0  0  0
  9  8  1  0  0  0  0
 10  9  1  0  0  0  0
 12  9  1  0  0  0  0
M  END
