fraglig_969_min_6PQL_A_2.56207_rhidx
 OpenBabel03222614283D

 15 16  0  0  0  0  0  0  0  0999 V2000
   60.5600   59.5700  118.3900 C   0  0  0  0  0  0  0  0  0  0  0  0
   60.8800   60.8900  118.2900 C   0  0  0  0  0  0  0  0  0  0  0  0
   60.2200   61.9000  118.2500 C   0  0  0  0  0  0  0  0  0  0  0  0
   59.0300   61.7400  118.3400 C   0  0  0  0  0  0  0  0  0  0  0  0
   58.2500   60.6400  118.5000 C   0  0  0  0  0  0  0  0  0  0  0  0
   59.2100   59.6700  118.4900 C   0  0  0  0  0  0  0  0  0  0  0  0
   57.0800   60.4400  117.6500 C   0  0  0  0  0  0  0  0  0  0  0  0
   56.5100   59.2000  117.5000 N   0  0  0  0  0  0  0  0  0  0  0  0
   55.2900   59.1100  117.4300 C   0  0  0  0  0  0  0  0  0  0  0  0
   54.4000   59.9600  117.4900 N   0  0  0  0  0  0  0  0  0  0  0  0
   54.9300   61.0700  117.6300 C   0  0  0  0  0  0  0  0  0  0  0  0
   56.1000   61.3800  117.7100 C   0  0  0  0  0  0  0  0  0  0  0  0
   61.4200   58.4200  119.4400 S   0  0  0  0  0  0  0  0  0  0  0  0
   60.6700   57.0000  118.9000 C   0  0  0  0  0  0  0  0  0  0  0  0
   60.1700   56.0200  118.5200 O   0  0  0  0  0  0  0  0  0  0  0  0
  1  6  1  0  0  0  0
  1 13  1  0  0  0  0
  2  1  2  0  0  0  0
  3  2  1  0  0  0  0
  3  4  2  0  0  0  0
  4  5  1  0  0  0  0
  6  5  2  0  0  0  0
  7 12  1  0  0  0  0
  7  5  1  0  0  0  0
  8  7  2  0  0  0  0
  9 10  2  0  0  0  0
  9  8  1  0  0  0  0
 10 11  1  0  0  0  0
 11 12  2  0  0  0  0
 14 13  1  0  0  0  0
 15 14  1  0  0  0  0
M  END
