fraglig_270_min_6PQL_A_2.60745_rhidx
 OpenBabel03222614283D

 15 17  0  0  1  0  0  0  0  0999 V2000
   58.1200   59.3400  118.4400 C   0  0  2  0  0  0  0  0  0  0  0  0
   57.3200   58.5000  117.8600 C   0  0  1  0  0  0  0  0  0  0  0  0
   56.0600   58.7500  118.0800 C   0  0  2  0  0  0  0  0  0  0  0  0
   55.2400   59.3600  117.2100 C   0  0  0  0  0  0  0  0  0  0  0  0
   55.0500   60.5400  117.0500 C   0  0  0  0  0  0  0  0  0  0  0  0
   55.6400   61.3900  117.6500 C   0  0  0  0  0  0  0  0  0  0  0  0
   56.5000   61.1500  118.4700 C   0  0  0  0  0  0  0  0  0  0  0  0
   56.9200   59.9000  118.7900 C   0  0  1  0  0  0  0  0  0  0  0  0
   59.1600   59.9800  117.8200 O   0  0  0  0  0  0  0  0  0  0  0  0
   60.2800   60.1700  118.5900 C   0  0  0  0  0  0  0  0  0  0  0  0
   61.1200   61.1000  118.2200 C   0  0  0  0  0  0  0  0  0  0  0  0
   60.7600   59.1500  119.2700 C   0  0  0  0  0  0  0  0  0  0  0  0
   61.2800   57.7800  120.0900 S   0  0  0  0  0  0  0  0  0  0  0  0
   60.7600   56.7100  118.9000 C   0  0  0  0  0  0  0  0  0  0  0  0
   60.4000   55.9600  118.0800 O   0  0  0  0  0  0  0  0  0  0  0  0
  1  9  1  6  0  0  0
  1  8  1  0  0  0  0
  2  3  1  0  0  0  0
  2  1  1  0  0  0  0
  2  8  1  0  0  0  0
  3  8  1  0  0  0  0
  4  3  1  0  0  0  0
  5  4  1  0  0  0  0
  5  6  2  0  0  0  0
  6  7  1  0  0  0  0
  7  8  1  0  0  0  0
  9 10  1  0  0  0  0
 10 12  1  0  0  0  0
 11 10  2  0  0  0  0
 12 13  1  0  0  0  0
 14 13  1  0  0  0  0
 15 14  1  0  0  0  0
M  END
