fraglig_122_min_6PQL_A_2.59977_rhidx
 OpenBabel03222614283D

 25 24  0  0  0  0  0  0  0  0999 V2000
   56.3600   59.5100  118.3800 O   0  0  0  0  0  0  0  0  0  0  0  0
   57.6500   59.7000  117.7800 C   0  0  0  0  0  0  0  0  0  0  0  0
   58.7400   59.5100  118.8500 C   0  0  0  0  0  0  0  0  0  0  0  0
   60.1500   59.5000  118.2200 C   0  0  0  0  0  0  0  0  0  0  0  0
   61.4700   59.8100  119.4700 S   0  0  0  0  0  0  0  0  0  0  0  0
   61.2400   58.2900  120.4700 C   0  0  0  0  0  0  0  0  0  0  0  0
   55.2600   59.7100  117.4700 C   0  0  0  0  0  0  0  0  0  0  0  0
   54.9900   61.2300  117.4400 C   0  0  0  0  0  0  0  0  0  0  0  0
   53.5600   61.6300  117.8100 N   0  0  0  0  0  4  0  0  0  0  0  0
   57.7300   60.7100  117.3500 H   0  0  0  0  0  0  0  0  0  0  0  0
   57.7900   58.9700  116.9700 H   0  0  0  0  0  0  0  0  0  0  0  0
   58.5600   58.5700  119.3800 H   0  0  0  0  0  0  0  0  0  0  0  0
   58.6600   60.3200  119.5800 H   0  0  0  0  0  0  0  0  0  0  0  0
   60.2200   60.2700  117.4400 H   0  0  0  0  0  0  0  0  0  0  0  0
   60.3300   58.5200  117.7500 H   0  0  0  0  0  0  0  0  0  0  0  0
   62.0500   58.2400  121.2100 H   0  0  0  0  0  0  0  0  0  0  0  0
   61.2800   57.4000  119.8300 H   0  0  0  0  0  0  0  0  0  0  0  0
   60.2800   58.3500  121.0000 H   0  0  0  0  0  0  0  0  0  0  0  0
   55.5100   59.3300  116.4700 H   0  0  0  0  0  0  0  0  0  0  0  0
   54.3800   59.1600  117.8300 H   0  0  0  0  0  0  0  0  0  0  0  0
   55.2300   61.6300  116.4600 H   0  0  0  0  0  0  0  0  0  0  0  0
   55.6600   61.6900  118.1700 H   0  0  0  0  0  0  0  0  0  0  0  0
   52.8700   61.4500  117.0200 H   0  0  0  0  0  0  0  0  0  0  0  0
   53.4600   62.6400  117.9500 H   0  0  0  0  0  0  0  0  0  0  0  0
   53.1800   61.1200  118.6100 H   0  0  0  0  0  0  0  0  0  0  0  0
  2  1  1  0  0  0  0
  2  3  1  0  0  0  0
  3 12  1  0  0  0  0
  3 13  1  0  0  0  0
  4  3  1  0  0  0  0
  4  5  1  0  0  0  0
  5  6  1  0  0  0  0
  6 18  1  0  0  0  0
  6 16  1  0  0  0  0
  7 20  1  0  0  0  0
  7  1  1  0  0  0  0
  8  7  1  0  0  0  0
  8  9  1  0  0  0  0
  8 22  1  0  0  0  0
  9 24  1  0  0  0  0
  9 25  1  0  0  0  0
 10  2  1  0  0  0  0
 11  2  1  0  0  0  0
 14  4  1  0  0  0  0
 15  4  1  0  0  0  0
 17  6  1  0  0  0  0
 19  7  1  0  0  0  0
 21  8  1  0  0  0  0
 23  9  1  0  0  0  0
M  END
