fraglig_309_min_6PQL_A_2.6158_rhidx
 OpenBabel03222614283D

 11 11  0  0  0  0  0  0  0  0999 V2000
   56.9700   58.7600  118.3100 C   0  0  0  0  0  0  0  0  0  0  0  0
   58.0800   57.9900  118.3700 C   0  0  0  0  0  0  0  0  0  0  0  0
   59.4800   58.1700  118.3600 N   0  0  0  0  0  0  0  0  0  0  0  0
   59.5300   59.5500  118.2100 C   0  0  0  0  0  0  0  0  0  0  0  0
   58.6700   60.4000  118.1300 C   0  0  0  0  0  0  0  0  0  0  0  0
   57.5400   59.9900  118.1700 C   0  0  0  0  0  0  0  0  0  0  0  0
   55.9200   58.3700  117.5000 N   0  0  0  0  0  0  0  0  0  0  0  0
   60.2800   57.5300  119.2300 C   0  0  0  0  0  0  0  0  0  0  0  0
   60.9700   56.9700  119.9900 O   0  0  0  0  0  0  0  0  0  0  0  0
   55.5200   59.0900  116.9200 H   0  0  0  0  0  0  0  0  0  0  0  0
   56.0000   57.4400  117.0700 H   0  0  0  0  0  0  0  0  0  0  0  0
  1  2  1  0  0  0  0
  3  2  1  0  0  0  0
  3  8  1  0  0  0  0
  4  3  1  0  0  0  0
  5  6  1  0  0  0  0
  5  4  2  0  0  0  0
  6  1  2  0  0  0  0
  7  1  1  0  0  0  0
  8  9  1  0  0  0  0
 10  7  1  0  0  0  0
 11  7  1  0  0  0  0
M  END
