fraglig_258_min_6PQL_A_2.53347_rhidx
 OpenBabel03222614283D

 18 18  0  0  0  0  0  0  0  0999 V2000
   57.2300   59.3100  118.7300 C   0  0  0  0  0  0  0  0  0  0  0  0
   57.4800   58.2000  117.8800 C   0  0  0  0  0  0  0  0  0  0  0  0
   58.6600   57.5400  118.1300 N   0  0  0  0  0  0  0  0  0  0  0  0
   59.2500   58.1400  119.1500 C   0  0  0  0  0  0  0  0  0  0  0  0
   58.4700   59.5200  119.9200 S   0  0  0  0  0  0  0  0  0  0  0  0
   56.0100   60.1700  118.5900 C   0  0  0  0  0  0  0  0  0  0  0  0
   56.3800   61.6700  118.4900 C   0  0  0  0  0  0  0  0  0  0  0  0
   60.7700   57.4300  119.6900 S   0  0  0  0  0  0  0  0  0  0  0  0
   60.9600   58.2100  121.3500 C   0  0  0  0  0  0  0  0  0  0  0  0
   56.8400   57.8700  117.0700 H   0  0  0  0  0  0  0  0  0  0  0  0
   55.3500   60.0200  119.4500 H   0  0  0  0  0  0  0  0  0  0  0  0
   55.4300   59.8800  117.7000 H   0  0  0  0  0  0  0  0  0  0  0  0
   56.9600   61.9900  119.3700 H   0  0  0  0  0  0  0  0  0  0  0  0
   55.4800   62.2900  118.4400 H   0  0  0  0  0  0  0  0  0  0  0  0
   56.9800   61.8600  117.5900 H   0  0  0  0  0  0  0  0  0  0  0  0
   61.9100   57.9100  121.8000 H   0  0  0  0  0  0  0  0  0  0  0  0
   60.1400   57.8800  121.9900 H   0  0  0  0  0  0  0  0  0  0  0  0
   60.9400   59.3000  121.2700 H   0  0  0  0  0  0  0  0  0  0  0  0
  1  5  1  0  0  0  0
  2  3  1  0  0  0  0
  2  1  2  0  0  0  0
  3  4  2  0  0  0  0
  4  8  1  0  0  0  0
  4  5  1  0  0  0  0
  6  1  1  0  0  0  0
  6 11  1  0  0  0  0
  7  6  1  0  0  0  0
  7 13  1  0  0  0  0
  8  9  1  0  0  0  0
  9 16  1  0  0  0  0
  9 17  1  0  0  0  0
 10  2  1  0  0  0  0
 12  6  1  0  0  0  0
 14  7  1  0  0  0  0
 15  7  1  0  0  0  0
 18  9  1  0  0  0  0
M  END
