fraglig_563_min_6PQL_A_2.58806_rhidx
 OpenBabel03222614283D

 23 22  0  0  0  0  0  0  0  0999 V2000
   58.3200   58.5200  117.3900 O   0  0  0  0  0  0  0  0  0  0  0  0
   57.4100   59.4800  117.9500 C   0  0  0  0  0  0  0  0  0  0  0  0
   56.0400   59.1700  117.3300 C   0  0  0  0  0  0  0  0  0  0  0  0
   54.6500   60.0500  118.1100 S   0  0  0  0  0  0  0  0  0  0  0  0
   55.1000   61.8100  117.8400 C   0  0  0  0  0  0  0  0  0  0  0  0
   59.7000   58.6800  117.7400 C   0  0  0  0  0  0  0  0  0  0  0  0
   60.0600   57.6900  118.8700 C   0  0  0  0  0  0  0  0  0  0  0  0
   61.1100   58.2600  119.8300 C   0  0  0  0  0  0  0  0  0  0  0  0
   62.3100   58.5800  119.1200 O   0  0  0  0  0  0  0  0  0  0  0  0
   57.7300   60.5000  117.6800 H   0  0  0  0  0  0  0  0  0  0  0  0
   57.3800   59.3900  119.0400 H   0  0  0  0  0  0  0  0  0  0  0  0
   55.8500   58.1000  117.3900 H   0  0  0  0  0  0  0  0  0  0  0  0
   56.0600   59.4600  116.2800 H   0  0  0  0  0  0  0  0  0  0  0  0
   54.3500   62.4600  118.2900 H   0  0  0  0  0  0  0  0  0  0  0  0
   55.1300   62.0000  116.7600 H   0  0  0  0  0  0  0  0  0  0  0  0
   56.0900   62.0400  118.2800 H   0  0  0  0  0  0  0  0  0  0  0  0
   59.9100   59.7200  118.0400 H   0  0  0  0  0  0  0  0  0  0  0  0
   60.3200   58.4600  116.8600 H   0  0  0  0  0  0  0  0  0  0  0  0
   60.4200   56.7500  118.4300 H   0  0  0  0  0  0  0  0  0  0  0  0
   59.1500   57.4400  119.4400 H   0  0  0  0  0  0  0  0  0  0  0  0
   61.3200   57.5300  120.6100 H   0  0  0  0  0  0  0  0  0  0  0  0
   60.7200   59.1600  120.3100 H   0  0  0  0  0  0  0  0  0  0  0  0
   62.5200   57.8500  118.5000 H   0  0  0  0  0  0  0  0  0  0  0  0
  1  6  1  0  0  0  0
  1  2  1  0  0  0  0
  2 11  1  0  0  0  0
  3 12  1  0  0  0  0
  3  2  1  0  0  0  0
  3  4  1  0  0  0  0
  5  4  1  0  0  0  0
  5 16  1  0  0  0  0
  5 14  1  0  0  0  0
  6 17  1  0  0  0  0
  6  7  1  0  0  0  0
  7 20  1  0  0  0  0
  7  8  1  0  0  0  0
  8 22  1  0  0  0  0
  8 21  1  0  0  0  0
  9  8  1  0  0  0  0
 10  2  1  0  0  0  0
 13  3  1  0  0  0  0
 15  5  1  0  0  0  0
 18  6  1  0  0  0  0
 19  7  1  0  0  0  0
 23  9  1  0  0  0  0
M  END
