
 OpenBabel03202621362D

 18 18  0  0  1  0  0  0  0  0999 V2000
    3.1102   -1.1204   -1.7905 O   0  0  0  0  0  0  0  0  0  0  0  0
    2.3798   -0.5101   -1.0197 C   0  0  0  0  0  0  0  0  0  0  0  0
    1.0278   -0.2529   -1.2168 N   0  0  0  0  0  0  0  0  0  0  0  0
    0.3965   -0.8002   -2.3953 N   0  0  0  0  0  0  0  0  0  0  0  0
   -0.9494   -1.2298   -2.0267 C   0  0  0  0  0  0  0  0  0  0  0  0
   -1.3778   -0.2458   -0.9316 C   0  0  0  0  0  0  0  0  0  0  0  0
    0.0000    0.0000    0.0000 C   0  0  3  0  0  0  0  0  0  0  0  0
    0.0000    1.0000    0.0000 C   0  0  0  0  0  0  0  0  0  0  0  0
    0.8926    1.8263   -0.1965 O   0  0  0  0  0  0  0  0  0  0  0  0
   -1.0473    1.6103    0.6424 O   0  0  0  0  0  0  0  0  0  0  0  0
    2.7405   -0.1141   -0.0535 H   0  0  0  0  0  0  0  0  0  0  0  0
    0.9682   -1.5833   -2.7336 H   0  0  0  0  0  0  0  0  0  0  0  0
   -0.9263   -2.2522   -1.6305 H   0  0  0  0  0  0  0  0  0  0  0  0
   -1.6309   -1.2141   -2.8832 H   0  0  0  0  0  0  0  0  0  0  0  0
   -1.7512    0.6664   -1.4299 H   0  0  0  0  0  0  0  0  0  0  0  0
   -2.1845   -0.6573   -0.3109 H   0  0  0  0  0  0  0  0  0  0  0  0
    0.0000   -1.0700    0.0000 H   0  0  0  0  0  0  0  0  0  0  0  0
   -0.7880    2.5593    0.6175 H   0  0  0  0  0  0  0  0  0  0  0  0
  1  2  2  0  0  0  0
  2  3  1  0  0  0  0
  2 11  1  0  0  0  0
  3  7  1  0  0  0  0
  3  4  1  0  0  0  0
  4  5  1  0  0  0  0
  4 12  1  0  0  0  0
  5  6  1  0  0  0  0
  5 13  1  0  0  0  0
  5 14  1  0  0  0  0
  6  7  1  0  0  0  0
  6 15  1  0  0  0  0
  6 16  1  0  0  0  0
  7  8  1  0  0  0  0
  7 17  1  0  0  0  0
  8  9  2  0  0  0  0
  8 10  1  0  0  0  0
 10 18  1  0  0  0  0
M  END
$$$$
