
 OpenBabel03202621282D

 16 17  0  0  1  0  0  0  0  0999 V2000
    1.5801   -0.4234    0.0000 C   0  0  0  0  0  0  0  0  0  0  0  0
    0.6678   -0.6678    0.0000 C   0  0  0  0  0  0  0  0  0  0  0  0
    0.4234   -1.5801    0.0000 C   0  0  0  0  0  0  0  0  0  0  0  0
   -0.4889   -1.8245    0.0000 C   0  0  0  0  0  0  0  0  0  0  0  0
   -1.1567   -1.1567    0.0000 C   0  0  0  0  0  0  0  0  0  0  0  0
   -2.9812   -1.6456    0.0000 C   0  0  3  0  0  0  0  0  0  0  0  0
   -3.1045   -2.5819    0.0000 O   0  0  0  0  0  0  0  0  0  0  0  0
   -3.7991   -2.1178    0.0000 C   0  0  0  0  0  0  0  0  0  0  0  0
   -4.6171   -1.6456    0.0000 C   0  0  0  0  0  0  0  0  0  0  0  0
   -4.6171   -0.7011    0.0000 O   0  0  0  0  0  0  0  0  0  0  0  0
   -3.7991   -0.2289    0.0000 C   0  0  0  0  0  0  0  0  0  0  0  0
   -2.9812   -0.7011    0.0000 C   0  0  0  0  0  0  0  0  0  0  0  0
   -2.1633   -0.2289    0.0000 O   0  0  0  0  0  0  0  0  0  0  0  0
   -0.9123   -0.2444    0.0000 C   0  0  0  0  0  0  0  0  0  0  0  0
    0.0000   -0.0000    0.0000 C   0  0  0  0  0  0  0  0  0  0  0  0
    0.2444    0.9123    0.0000 O   0  0  0  0  0  0  0  0  0  0  0  0
  1  2  1  0  0  0  0
  2 15  2  0  0  0  0
  2  3  1  0  0  0  0
  3  4  2  0  0  0  0
  4  5  1  0  0  0  0
  5  6  1  0  0  0  0
  5 14  2  0  0  0  0
  6 12  1  0  0  0  0
  6  7  1  0  0  0  0
  6  8  1  0  0  0  0
  8  9  1  0  0  0  0
  9 10  1  0  0  0  0
 10 11  1  0  0  0  0
 11 12  1  0  0  0  0
 12 13  2  0  0  0  0
 14 15  1  0  0  0  0
 15 16  1  0  0  0  0
M  END
$$$$
