
 OpenBabel03202621382D

 23 22  0  0  1  0  0  0  0  0999 V2000
    5.1962    1.0000    0.0000 C   0  0  0  0  0  0  0  0  0  0  0  0
    5.1962    2.0000    0.0000 S   0  0  0  0  0  0  0  0  0  0  0  0
    4.2326    2.2382    1.4250 C   0  0  0  0  0  0  0  0  0  0  0  0
    3.4641    2.0000    0.0000 C   0  0  2  0  0  0  0  0  0  0  0  0
    2.5981    2.5000    0.0000 C   0  0  0  0  0  0  0  0  0  0  0  0
    3.4641    1.0000    0.0000 O   0  0  0  0  0  0  0  0  0  0  0  0
    2.6713   -0.1458    0.4297 C   0  0  0  0  0  0  0  0  0  0  0  0
    1.1375   -0.1072    0.4543 C   0  0  0  0  0  0  0  0  0  0  0  0
    0.6135   -1.4292    0.7544 C   0  0  0  0  0  0  0  0  0  0  0  0
    0.1888   -2.4600    1.0213 N   0  0  0  0  0  0  0  0  0  0  0  0
    5.6147    0.8276   -1.0211 H   0  0  0  0  0  0  0  0  0  0  0  0
    6.0586    0.8139    0.6831 H   0  0  0  0  0  0  0  0  0  0  0  0
    5.1962   -0.0700    0.0000 H   0  0  0  0  0  0  0  0  0  0  0  0
    4.9197    3.0570    1.6920 H   0  0  0  0  0  0  0  0  0  0  0  0
    3.4239    2.7648    1.9819 H   0  0  0  0  0  0  0  0  0  0  0  0
    3.4641    3.0700    0.0000 H   0  0  0  0  0  0  0  0  0  0  0  0
    2.2771    2.3916   -1.0959 H   0  0  0  0  0  0  0  0  0  0  0  0
    1.9085    2.0006    0.7136 H   0  0  0  0  0  0  0  0  0  0  0  0
    1.6715    3.0350    0.0000 H   0  0  0  0  0  0  0  0  0  0  0  0
    3.0601   -0.4675    1.4026 H   0  0  0  0  0  0  0  0  0  0  0  0
    2.9606   -0.9451   -0.2756 H   0  0  0  0  0  0  0  0  0  0  0  0
    0.7928    0.5917    1.2447 H   0  0  0  0  0  0  0  0  0  0  0  0
    0.7473    0.2862   -0.4906 H   0  0  0  0  0  0  0  0  0  0  0  0
  1  2  1  0  0  0  0
  1 11  1  0  0  0  0
  1 12  1  0  0  0  0
  1 13  1  0  0  0  0
  2  3  1  0  0  0  0
  3  4  1  0  0  0  0
  3 14  1  0  0  0  0
  3 15  1  0  0  0  0
  4  5  1  0  0  0  0
  4  6  1  0  0  0  0
  4 16  1  6  0  0  0
  5 17  1  0  0  0  0
  5 18  1  0  0  0  0
  5 19  1  0  0  0  0
  6  7  1  0  0  0  0
  7  8  1  0  0  0  0
  7 20  1  0  0  0  0
  7 21  1  0  0  0  0
  8  9  1  0  0  0  0
  8 22  1  0  0  0  0
  8 23  1  0  0  0  0
  9 10  3  0  0  0  0
M  END
$$$$
