
 OpenBabel03202621312D

 17 17  0  0  0  0  0  0  0  0999 V2000
    1.9561    3.9753   -0.0000 O   0  0  0  0  0  0  0  0  0  0  0  0
    0.8399    3.4769    0.0000 C   0  0  0  0  0  0  0  0  0  0  0  0
    0.5198    2.1404    0.0000 N   0  0  0  0  0  0  0  0  0  0  0  0
    1.4517    1.0343   -0.0000 C   0  0  0  0  0  0  0  0  0  0  0  0
    0.9967   -0.4294    0.0000 C   0  0  0  0  0  0  0  0  0  0  0  0
    2.1358   -1.3450   -0.0000 O   0  0  0  0  0  0  0  0  0  0  0  0
   -0.1103   -1.7786    0.0000 C   0  0  0  0  0  0  0  0  0  0  0  0
   -0.4762   -0.4015   -0.0001 C   0  0  0  0  0  0  0  0  0  0  0  0
   -0.0704    4.1000    0.0000 H   0  0  0  0  0  0  0  0  0  0  0  0
   -0.4709    1.9878   -0.0000 H   0  0  0  0  0  0  0  0  0  0  0  0
    2.2768    1.7677    0.0000 H   0  0  0  0  0  0  0  0  0  0  0  0
    2.5122    0.7282   -0.0000 H   0  0  0  0  0  0  0  0  0  0  0  0
    3.0243   -0.9523    0.0000 H   0  0  0  0  0  0  0  0  0  0  0  0
    0.5721   -2.6175   -0.0000 H   0  0  0  0  0  0  0  0  0  0  0  0
   -1.0579   -2.3042    0.0000 H   0  0  0  0  0  0  0  0  0  0  0  0
   -1.1500    0.4474    0.0000 H   0  0  0  0  0  0  0  0  0  0  0  0
   -1.5556   -0.6907    0.0000 H   0  0  0  0  0  0  0  0  0  0  0  0
  1  2  2  0  0  0  0
  2  3  1  0  0  0  0
  2  9  1  0  0  0  0
  3  4  1  0  0  0  0
  3 10  1  0  0  0  0
  4  5  1  0  0  0  0
  4 11  1  0  0  0  0
  4 12  1  0  0  0  0
  5  8  1  0  0  0  0
  5  6  1  0  0  0  0
  5  7  1  0  0  0  0
  6 13  1  0  0  0  0
  7  8  1  0  0  0  0
  7 14  1  0  0  0  0
  7 15  1  0  0  0  0
  8 16  1  0  0  0  0
  8 17  1  0  0  0  0
M  END
$$$$
