
 OpenBabel03202621382D

 17 16  0  0  0  0  0  0  0  0999 V2000
    3.4641    0.0000    0.0000 C   0  0  0  0  0  0  0  0  0  0  0  0
    3.4641    1.0000    0.0000 N   0  0  0  0  0  0  0  0  0  0  0  0
    4.6762    1.5421   -0.5642 O   0  0  0  0  0  0  0  0  0  0  0  0
    2.3861    1.8344   -0.3311 C   0  0  0  0  0  0  0  0  0  0  0  0
    2.6169    2.9956   -0.7095 O   0  0  0  0  0  0  0  0  0  0  0  0
    0.9374    1.3960   -0.0424 C   0  0  0  0  0  0  0  0  0  0  0  0
    0.5756    0.0313   -0.3902 N   0  0  0  0  0  0  0  0  0  0  0  0
   -0.4149   -0.6220    0.2934 C   0  0  0  0  0  0  0  0  0  0  0  0
   -1.0057   -0.1921    1.2728 O   0  0  0  0  0  0  0  0  0  0  0  0
    2.7488   -0.1579    0.8387 H   0  0  0  0  0  0  0  0  0  0  0  0
    4.4459   -0.1832    0.5043 H   0  0  0  0  0  0  0  0  0  0  0  0
    3.4641   -1.0700    0.0000 H   0  0  0  0  0  0  0  0  0  0  0  0
    4.4465    2.4930   -0.6729 H   0  0  0  0  0  0  0  0  0  0  0  0
    0.7378    1.5803    1.0186 H   0  0  0  0  0  0  0  0  0  0  0  0
    0.2735    2.0409   -0.6301 H   0  0  0  0  0  0  0  0  0  0  0  0
    0.8721   -0.3475   -1.2828 H   0  0  0  0  0  0  0  0  0  0  0  0
   -0.6331   -1.6133   -0.1404 H   0  0  0  0  0  0  0  0  0  0  0  0
  1  2  1  0  0  0  0
  1 10  1  0  0  0  0
  1 11  1  0  0  0  0
  1 12  1  0  0  0  0
  2  3  1  0  0  0  0
  2  4  1  0  0  0  0
  3 13  1  0  0  0  0
  4  5  2  0  0  0  0
  4  6  1  0  0  0  0
  6  7  1  0  0  0  0
  6 14  1  0  0  0  0
  6 15  1  0  0  0  0
  7  8  1  0  0  0  0
  7 16  1  0  0  0  0
  8  9  2  0  0  0  0
  8 17  1  0  0  0  0
M  END
$$$$
