
 OpenBabel03202621322D

 17 17  0  0  0  0  0  0  0  0999 V2000
   -0.9970   -4.4803    0.0000 C   0  0  0  0  0  0  0  0  0  0  0  0
   -0.9791   -3.2800    0.0000 C   0  0  0  0  0  0  0  0  0  0  0  0
   -0.9546   -1.8755   -0.0000 C   0  0  0  0  0  0  0  0  0  0  0  0
   -2.1468   -1.1671   -0.0000 C   0  0  0  0  0  0  0  0  0  0  0  0
   -2.0658    0.1997   -0.0000 C   0  0  0  0  0  0  0  0  0  0  0  0
   -0.8000    0.7775   -0.0000 C   0  0  0  0  0  0  0  0  0  0  0  0
   -0.8660    2.5000    0.0000 S   0  0  0  0  0  0  0  0  0  0  0  0
    0.0000    3.0000    0.0000 C   0  0  0  0  0  0  0  0  0  0  0  0
    0.3693    0.1207   -0.0000 N   0  0  0  0  0  0  0  0  0  0  0  0
    0.2661   -1.2098   -0.0000 C   0  0  0  0  0  0  0  0  0  0  0  0
   -1.0031   -5.5411    0.0000 H   0  0  0  0  0  0  0  0  0  0  0  0
   -3.1174   -1.6488    0.0000 H   0  0  0  0  0  0  0  0  0  0  0  0
   -2.9660    0.8104   -0.0000 H   0  0  0  0  0  0  0  0  0  0  0  0
    0.8653    2.3309    0.0000 H   0  0  0  0  0  0  0  0  0  0  0  0
   -0.2608    4.0629    0.0000 H   0  0  0  0  0  0  0  0  0  0  0  0
    0.9266    3.5350    0.0000 H   0  0  0  0  0  0  0  0  0  0  0  0
    1.2139   -1.7383   -0.0000 H   0  0  0  0  0  0  0  0  0  0  0  0
  1  2  3  0  0  0  0
  1 11  1  0  0  0  0
  2  3  1  0  0  0  0
  3 10  2  0  0  0  0
  3  4  1  0  0  0  0
  4  5  2  0  0  0  0
  4 12  1  0  0  0  0
  5  6  1  0  0  0  0
  5 13  1  0  0  0  0
  6  7  1  0  0  0  0
  6  9  2  0  0  0  0
  7  8  1  0  0  0  0
  8 14  1  0  0  0  0
  8 15  1  0  0  0  0
  8 16  1  0  0  0  0
  9 10  1  0  0  0  0
 10 17  1  0  0  0  0
M  END
$$$$
