
 OpenBabel03202621382D

 39 39  0  0  1  0  0  0  0  0999 V2000
    0.8660    4.5000    0.0000 C   0  0  0  0  0  0  0  0  0  0  0  0
    0.8660    3.5000    0.0000 C   0  0  2  0  0  0  0  0  0  0  0  0
   -0.6154    2.9877   -0.0589 N   0  0  0  0  0  0  0  0  0  0  0  0
   -1.1103    1.7160    0.1188 C   0  0  0  0  0  0  0  0  0  0  0  0
   -2.2452    1.5627    0.5213 O   0  0  0  0  0  0  0  0  0  0  0  0
   -0.1818    0.7680   -0.1669 O   0  0  0  0  0  0  0  0  0  0  0  0
   -0.2271   -0.6575   -0.1422 C   0  0  0  0  0  0  0  0  0  0  0  0
    0.9334   -1.2661   -0.3963 C   0  0  0  0  0  0  0  0  0  0  0  0
    1.2260   -2.5861   -0.4171 O   0  0  0  0  0  0  0  0  0  0  0  0
    0.2140   -3.5094   -0.0526 C   0  0  0  0  0  0  0  0  0  0  0  0
   -1.2226   -3.0165    0.0105 C   0  0  0  0  0  0  0  0  0  0  0  0
   -1.4151   -1.5172    0.1139 C   0  0  0  0  0  0  0  0  0  0  0  0
   -2.5247   -1.0725    0.3552 O   0  0  0  0  0  0  0  0  0  0  0  0
    1.4052    2.9896   -1.3405 C   0  0  0  0  0  0  0  0  0  0  0  0
    0.7974    2.4918   -2.2761 O   0  0  0  0  0  0  0  0  0  0  0  0
    2.7515    3.1871   -1.3773 O   0  0  0  0  0  0  0  0  0  0  0  0
    3.4641    3.0000    0.0000 C   0  0  0  0  0  0  0  0  0  0  0  0
    4.4641    3.0000    0.0000 C   0  0  0  0  0  0  0  0  0  0  0  0
    3.9641    3.8660    0.0000 C   0  0  0  0  0  0  0  0  0  0  0  0
    3.4641    2.0000    0.0000 C   0  0  0  0  0  0  0  0  0  0  0  0
    1.7437    4.7032    0.6423 H   0  0  0  0  0  0  0  0  0  0  0  0
    0.0644    4.7468    0.7475 H   0  0  0  0  0  0  0  0  0  0  0  0
    0.8660    5.5700    0.0000 H   0  0  0  0  0  0  0  0  0  0  0  0
    1.1854    2.8930    0.8496 H   0  0  0  0  0  0  0  0  0  0  0  0
   -1.3592    3.6482    0.1328 H   0  0  0  0  0  0  0  0  0  0  0  0
    1.8143   -0.6923   -0.6429 H   0  0  0  0  0  0  0  0  0  0  0  0
    0.5014   -3.9627    0.9040 H   0  0  0  0  0  0  0  0  0  0  0  0
    0.2754   -4.3207   -0.7881 H   0  0  0  0  0  0  0  0  0  0  0  0
   -1.7092   -3.4887    0.8736 H   0  0  0  0  0  0  0  0  0  0  0  0
   -1.7562   -3.3613   -0.8810 H   0  0  0  0  0  0  0  0  0  0  0  0
    4.8942    2.5208    1.0724 H   0  0  0  0  0  0  0  0  0  0  0  0
    4.9309    2.5430   -1.0639 H   0  0  0  0  0  0  0  0  0  0  0  0
    5.5341    3.0000    0.0000 H   0  0  0  0  0  0  0  0  0  0  0  0
    3.6631    4.2820    1.0975 H   0  0  0  0  0  0  0  0  0  0  0  0
    3.3494    4.6862   -0.5626 H   0  0  0  0  0  0  0  0  0  0  0  0
    4.4991    4.7926    0.0000 H   0  0  0  0  0  0  0  0  0  0  0  0
    3.2621    1.5135   -1.0269 H   0  0  0  0  0  0  0  0  0  0  0  0
    2.6808    1.7634    0.7660 H   0  0  0  0  0  0  0  0  0  0  0  0
    3.4641    0.9300    0.0000 H   0  0  0  0  0  0  0  0  0  0  0  0
  1 21  1  0  0  0  0
  1 22  1  0  0  0  0
  1 23  1  0  0  0  0
  2  1  1  0  0  0  0
  2  3  1  0  0  0  0
  2 14  1  0  0  0  0
  2 24  1  6  0  0  0
  3  4  1  0  0  0  0
  3 25  1  0  0  0  0
  4  5  2  0  0  0  0
  4  6  1  0  0  0  0
  6  7  1  0  0  0  0
  7 12  1  0  0  0  0
  7  8  2  0  0  0  0
  8  9  1  0  0  0  0
  8 26  1  0  0  0  0
  9 10  1  0  0  0  0
 10 11  1  0  0  0  0
 10 27  1  0  0  0  0
 10 28  1  0  0  0  0
 11 12  1  0  0  0  0
 11 29  1  0  0  0  0
 11 30  1  0  0  0  0
 12 13  2  0  0  0  0
 14 15  2  0  0  0  0
 14 16  1  0  0  0  0
 16 17  1  0  0  0  0
 17 18  1  0  0  0  0
 17 19  1  0  0  0  0
 17 20  1  0  0  0  0
 18 31  1  0  0  0  0
 18 32  1  0  0  0  0
 18 33  1  0  0  0  0
 19 34  1  0  0  0  0
 19 35  1  0  0  0  0
 19 36  1  0  0  0  0
 20 37  1  0  0  0  0
 20 38  1  0  0  0  0
 20 39  1  0  0  0  0
M  END
$$$$
