
 OpenBabel03202621382D

 28 29  0  0  0  0  0  0  0  0999 V2000
    3.5533    0.8313   -1.0268 O   0  0  0  0  0  0  0  0  0  0  0  0
    4.3816    0.1539   -0.4258 C   0  0  0  0  0  0  0  0  0  0  0  0
    5.6476    0.7334    0.1377 C   0  0  0  0  0  0  0  0  0  0  0  0
    6.7633   -0.2453   -0.1675 C   0  0  0  0  0  0  0  0  0  0  0  0
    6.5153   -1.5575    0.3542 O   0  0  0  0  0  0  0  0  0  0  0  0
    5.2350   -2.0177    0.1832 C   0  0  0  0  0  0  0  0  0  0  0  0
    4.1668   -1.2989   -0.1803 C   0  0  0  0  0  0  0  0  0  0  0  0
    2.8887   -1.8841   -0.3283 O   0  0  0  0  0  0  0  0  0  0  0  0
    1.7972   -1.3357    0.3056 C   0  0  0  0  0  0  0  0  0  0  0  0
    1.9086   -0.6701    1.8418 S   0  0  0  0  0  0  0  0  0  0  0  0
    0.6458   -1.6744   -0.3694 N   0  0  0  0  0  0  0  0  0  0  0  0
   -0.6498   -1.1339   -0.2123 C   0  0  0  0  0  0  0  0  0  0  0  0
   -1.7159   -2.0427   -0.2087 C   0  0  0  0  0  0  0  0  0  0  0  0
   -3.0350   -1.5957   -0.0818 C   0  0  0  0  0  0  0  0  0  0  0  0
   -3.2962   -0.2303    0.0054 C   0  0  0  0  0  0  0  0  0  0  0  0
   -5.0804    0.3791    0.1416 Br  0  0  0  0  0  0  0  0  0  0  0  0
   -2.2560    0.6907   -0.0431 C   0  0  0  0  0  0  0  0  0  0  0  0
   -0.9359    0.2464   -0.1629 C   0  0  0  0  0  0  0  0  0  0  0  0
    0.2533    1.4669   -0.4572 Cl  0  0  0  0  0  0  0  0  0  0  0  0
    5.8503    1.7032   -0.3264 H   0  0  0  0  0  0  0  0  0  0  0  0
    5.5118    0.8713    1.2155 H   0  0  0  0  0  0  0  0  0  0  0  0
    6.9287   -0.3303   -1.2489 H   0  0  0  0  0  0  0  0  0  0  0  0
    7.6984    0.1103    0.2780 H   0  0  0  0  0  0  0  0  0  0  0  0
    5.1791   -3.0735    0.4167 H   0  0  0  0  0  0  0  0  0  0  0  0
    0.7339   -2.5018   -0.9460 H   0  0  0  0  0  0  0  0  0  0  0  0
   -1.5322   -3.1139   -0.2650 H   0  0  0  0  0  0  0  0  0  0  0  0
   -3.8481   -2.3168   -0.0556 H   0  0  0  0  0  0  0  0  0  0  0  0
   -2.4673    1.7580   -0.0286 H   0  0  0  0  0  0  0  0  0  0  0  0
  1  2  2  0  0  0  0
  2  7  1  0  0  0  0
  2  3  1  0  0  0  0
  3  4  1  0  0  0  0
  3 20  1  0  0  0  0
  3 21  1  0  0  0  0
  4  5  1  0  0  0  0
  4 22  1  0  0  0  0
  4 23  1  0  0  0  0
  5  6  1  0  0  0  0
  6  7  2  0  0  0  0
  6 24  1  0  0  0  0
  7  8  1  0  0  0  0
  8  9  1  0  0  0  0
  9 10  2  0  0  0  0
  9 11  1  0  0  0  0
 11 12  1  0  0  0  0
 11 25  1  0  0  0  0
 12 18  2  0  0  0  0
 12 13  1  0  0  0  0
 13 14  2  0  0  0  0
 13 26  1  0  0  0  0
 14 15  1  0  0  0  0
 14 27  1  0  0  0  0
 15 16  1  0  0  0  0
 15 17  2  0  0  0  0
 17 18  1  0  0  0  0
 17 28  1  0  0  0  0
 18 19  1  0  0  0  0
M  END
$$$$
