
 OpenBabel03202621312D

 25 25  0  0  0  0  0  0  0  0999 V2000
   -0.8660   -3.5000    0.0000 C   0  0  0  0  0  0  0  0  0  0  0  0
    0.0000   -3.0000    0.0000 S   0  0  0  0  0  0  0  0  0  0  0  0
    0.2537   -1.4650   -0.7486 C   0  0  0  0  0  0  0  0  0  0  0  0
    1.6711   -1.1743   -1.5896 S   0  0  0  0  0  0  0  0  0  0  0  0
   -0.7903   -0.5998   -0.5248 N   0  0  0  0  0  0  0  0  0  0  0  0
   -0.8218    0.8082   -0.4692 C   0  0  0  0  0  0  0  0  0  0  0  0
   -2.0871    1.4037   -0.4822 C   0  0  0  0  0  0  0  0  0  0  0  0
   -2.2261    2.7845   -0.3498 C   0  0  0  0  0  0  0  0  0  0  0  0
   -1.0875    3.5811   -0.1762 C   0  0  0  0  0  0  0  0  0  0  0  0
   -1.2914    5.0184   -0.0382 N   0  3  0  0  0  0  0  0  0  0  0  0
   -0.5997    5.7512   -0.7515 O   0  0  0  0  0  0  0  0  0  0  0  0
   -2.1671    5.3882    0.7527 O   0  5  0  0  0  0  0  0  0  0  0  0
    0.1950    3.0183   -0.1217 C   0  0  0  0  0  0  0  0  0  0  0  0
    1.4295    3.8431    0.1444 C   0  0  0  0  0  0  0  0  0  0  0  0
    1.8870    4.4859   -0.9590 F   0  0  0  0  0  0  0  0  0  0  0  0
    1.2354    4.7865    1.1051 F   0  0  0  0  0  0  0  0  0  0  0  0
    2.4752    3.0924    0.5939 F   0  0  0  0  0  0  0  0  0  0  0  0
    0.3077    1.6199   -0.2869 C   0  0  0  0  0  0  0  0  0  0  0  0
   -1.3214   -3.0719    0.9148 H   0  0  0  0  0  0  0  0  0  0  0  0
   -0.4826   -4.5064    0.2538 H   0  0  0  0  0  0  0  0  0  0  0  0
   -1.7926   -4.0350    0.0000 H   0  0  0  0  0  0  0  0  0  0  0  0
   -1.6599   -1.0566   -0.2780 H   0  0  0  0  0  0  0  0  0  0  0  0
   -2.9835    0.7992   -0.6086 H   0  0  0  0  0  0  0  0  0  0  0  0
   -3.2212    3.2274   -0.3750 H   0  0  0  0  0  0  0  0  0  0  0  0
    1.2995    1.1833   -0.1978 H   0  0  0  0  0  0  0  0  0  0  0  0
  1  2  1  0  0  0  0
  1 19  1  0  0  0  0
  1 20  1  0  0  0  0
  1 21  1  0  0  0  0
  2  3  1  0  0  0  0
  3  4  2  0  0  0  0
  3  5  1  0  0  0  0
  5  6  1  0  0  0  0
  5 22  1  0  0  0  0
  6 18  2  0  0  0  0
  6  7  1  0  0  0  0
  7  8  2  0  0  0  0
  7 23  1  0  0  0  0
  8  9  1  0  0  0  0
  8 24  1  0  0  0  0
  9 10  1  0  0  0  0
  9 13  2  0  0  0  0
 10 11  2  0  0  0  0
 10 12  1  0  0  0  0
 13 14  1  0  0  0  0
 13 18  1  0  0  0  0
 14 15  1  0  0  0  0
 14 16  1  0  0  0  0
 14 17  1  0  0  0  0
 18 25  1  0  0  0  0
M  CHG  2  10   1  12  -1
M  END
$$$$
