
 OpenBabel03202621302D

 13 12  0  0  0  0  0  0  0  0999 V2000
    3.0617   -2.2125   -0.3466 N   0  0  0  0  0  0  0  0  0  0  0  0
    2.8514   -0.9498   -0.5150 C   0  0  0  0  0  0  0  0  0  0  0  0
    3.8601    0.1030   -0.0867 C   0  0  0  0  0  0  0  0  0  0  0  0
    3.2176    1.2067    0.6421 N   0  0  0  0  0  0  0  0  0  0  0  0
    1.3985   -0.4456   -1.3312 S   0  0  0  0  0  0  0  0  0  0  0  0
    0.4360   -0.2623    0.1288 C   0  0  0  0  0  0  0  0  0  0  0  0
   -0.7229    0.1304    0.0722 O   0  0  0  0  0  0  0  0  0  0  0  0
    2.2740   -2.7302   -0.7552 H   0  0  0  0  0  0  0  0  0  0  0  0
    4.6025   -0.3706    0.5643 H   0  0  0  0  0  0  0  0  0  0  0  0
    4.3781    0.4848   -0.9724 H   0  0  0  0  0  0  0  0  0  0  0  0
    3.9501    1.7981    1.0393 H   0  0  0  0  0  0  0  0  0  0  0  0
    2.7309    1.8066   -0.0279 H   0  0  0  0  0  0  0  0  0  0  0  0
    0.9013   -0.5283    1.0929 H   0  0  0  0  0  0  0  0  0  0  0  0
  1  2  2  0  0  0  0
  1  8  1  0  0  0  0
  2  3  1  0  0  0  0
  2  5  1  0  0  0  0
  3  4  1  0  0  0  0
  3  9  1  0  0  0  0
  3 10  1  0  0  0  0
  4 11  1  0  0  0  0
  4 12  1  0  0  0  0
  5  6  1  0  0  0  0
  6  7  2  0  0  0  0
  6 13  1  0  0  0  0
M  END
$$$$
