
 OpenBabel03202621342D

 13 13  0  0  0  0  0  0  0  0999 V2000
   -0.8660   -2.5000    0.0000 N   0  0  0  0  0  0  0  0  0  0  0  0
   -0.8660   -1.5000    0.0000 C   0  0  0  0  0  0  0  0  0  0  0  0
   -0.8660   -0.5000    0.0000 C   0  0  0  0  0  0  0  0  0  0  0  0
   -2.0306    0.1980    0.0050 C   0  0  0  0  0  0  0  0  0  0  0  0
   -2.1390    1.6874   -0.0392 C   0  0  0  0  0  0  0  0  0  0  0  0
   -0.9419    2.4186   -0.2645 O   0  0  0  0  0  0  0  0  0  0  0  0
    0.2147    1.7096   -0.1599 C   0  0  0  0  0  0  0  0  0  0  0  0
    0.3651    0.3787   -0.0155 C   0  0  0  0  0  0  0  0  0  0  0  0
    1.4606   -0.2446    0.1006 O   0  5  0  0  0  0  0  0  0  0  0  0
   -2.9845   -0.3256    0.0374 H   0  0  0  0  0  0  0  0  0  0  0  0
   -2.8311    1.9639   -0.8421 H   0  0  0  0  0  0  0  0  0  0  0  0
   -2.5761    2.0461    0.8992 H   0  0  0  0  0  0  0  0  0  0  0  0
    1.0712    2.3706   -0.2146 H   0  0  0  0  0  0  0  0  0  0  0  0
  1  2  3  0  0  0  0
  2  3  1  0  0  0  0
  3  8  1  0  0  0  0
  3  4  2  0  0  0  0
  4  5  1  0  0  0  0
  4 10  1  0  0  0  0
  5  6  1  0  0  0  0
  5 11  1  0  0  0  0
  5 12  1  0  0  0  0
  6  7  1  0  0  0  0
  7  8  2  0  0  0  0
  7 13  1  0  0  0  0
  8  9  1  0  0  0  0
M  CHG  1   9  -1
M  END
$$$$
