
 OpenBabel03202621372D

 23 22  0  0  0  0  0  0  0  0999 V2000
    5.1962   -1.0000    0.0000 C   0  0  0  0  0  0  0  0  0  0  0  0
    5.1962    0.0000    0.0000 C   0  0  0  0  0  0  0  0  0  0  0  0
    6.0622    0.5000    0.0000 C   0  0  0  0  0  0  0  0  0  0  0  0
    3.9129    0.6668    0.7053 C   0  0  0  0  0  0  0  0  0  0  0  0
    2.5720   -0.0138    0.3357 C   0  0  0  0  0  0  0  0  0  0  0  0
    1.4083    0.9763    0.2653 C   0  0  0  0  0  0  0  0  0  0  0  0
    0.1901    0.2410    0.0975 O   0  0  0  0  0  0  0  0  0  0  0  0
   -0.9409    0.9869    0.0263 C   0  0  0  0  0  0  0  0  0  0  0  0
   -2.0607    0.5218   -0.0808 O   0  0  0  0  0  0  0  0  0  0  0  0
    5.3894   -1.2448    1.0842 H   0  0  0  0  0  0  0  0  0  0  0  0
    6.0506   -1.3219   -0.6867 H   0  0  0  0  0  0  0  0  0  0  0  0
    5.1962   -2.0700    0.0000 H   0  0  0  0  0  0  0  0  0  0  0  0
    4.7877    0.1593   -1.0307 H   0  0  0  0  0  0  0  0  0  0  0  0
    6.2365    0.6500    1.1049 H   0  0  0  0  0  0  0  0  0  0  0  0
    5.7719    1.5075   -0.4161 H   0  0  0  0  0  0  0  0  0  0  0  0
    6.9888    1.0350    0.0000 H   0  0  0  0  0  0  0  0  0  0  0  0
    4.0242    0.6740    1.7979 H   0  0  0  0  0  0  0  0  0  0  0  0
    3.8490    1.7230    0.3971 H   0  0  0  0  0  0  0  0  0  0  0  0
    2.6346   -0.5170   -0.6380 H   0  0  0  0  0  0  0  0  0  0  0  0
    2.3491   -0.8037    1.0629 H   0  0  0  0  0  0  0  0  0  0  0  0
    1.3517    1.5717    1.1862 H   0  0  0  0  0  0  0  0  0  0  0  0
    1.5423    1.6470   -0.5965 H   0  0  0  0  0  0  0  0  0  0  0  0
   -0.7368    2.0684    0.0780 H   0  0  0  0  0  0  0  0  0  0  0  0
  1  2  1  0  0  0  0
  1 10  1  0  0  0  0
  1 11  1  0  0  0  0
  1 12  1  0  0  0  0
  2  3  1  0  0  0  0
  2  4  1  0  0  0  0
  2 13  1  0  0  0  0
  3 14  1  0  0  0  0
  3 15  1  0  0  0  0
  3 16  1  0  0  0  0
  4  5  1  0  0  0  0
  4 17  1  0  0  0  0
  4 18  1  0  0  0  0
  5  6  1  0  0  0  0
  5 19  1  0  0  0  0
  5 20  1  0  0  0  0
  6  7  1  0  0  0  0
  6 21  1  0  0  0  0
  6 22  1  0  0  0  0
  7  8  1  0  0  0  0
  8  9  2  0  0  0  0
  8 23  1  0  0  0  0
M  END
$$$$
