
 OpenBabel03202621332D

 27 29  0  0  0  0  0  0  0  0999 V2000
    0.0933    1.7796    0.0000 C   0  0  0  0  0  0  0  0  0  0  0  0
    0.5000    0.8660    0.0000 C   0  0  0  0  0  0  0  0  0  0  0  0
    1.7856    0.4532    0.0000 C   0  0  0  0  0  0  0  0  0  0  0  0
    1.8114   -0.9280   -0.0000 N   0  0  0  0  0  0  0  0  0  0  0  0
    2.9923   -1.6376    0.0000 C   0  0  0  0  0  0  0  0  0  0  0  0
    4.1288   -0.9398    0.0000 C   0  0  0  0  0  0  0  0  0  0  0  0
    5.4098   -1.5308    0.0000 C   0  0  0  0  0  0  0  0  0  0  0  0
    6.5234   -0.6958    0.0000 C   0  0  0  0  0  0  0  0  0  0  0  0
    7.7728   -1.2807    0.0000 C   0  0  0  0  0  0  0  0  0  0  0  0
    7.8599   -2.6702    0.0000 C   0  0  0  0  0  0  0  0  0  0  0  0
    9.1159   -3.2006   -0.0000 O   0  0  0  0  0  0  0  0  0  0  0  0
    6.7357   -3.5032    0.0000 C   0  0  0  0  0  0  0  0  0  0  0  0
    5.4911   -2.9068    0.0000 C   0  0  0  0  0  0  0  0  0  0  0  0
    4.3287   -3.6931    0.0000 O   0  0  0  0  0  0  0  0  0  0  0  0
    3.0312   -3.1352    0.0000 C   0  0  0  0  0  0  0  0  0  0  0  0
    2.0443   -3.8437   -0.0000 O   0  0  0  0  0  0  0  0  0  0  0  0
    0.5307   -1.3533   -0.0000 N   0  0  0  0  0  0  0  0  0  0  0  0
   -0.2559   -0.2947    0.0000 N   0  0  0  0  0  0  0  0  0  0  0  0
    0.9041    2.5260   -0.0000 H   0  0  0  0  0  0  0  0  0  0  0  0
   -1.0036    1.6748   -0.0000 H   0  0  0  0  0  0  0  0  0  0  0  0
   -0.3419    2.7571    0.0000 H   0  0  0  0  0  0  0  0  0  0  0  0
    2.6534    1.0892    0.0000 H   0  0  0  0  0  0  0  0  0  0  0  0
    4.1883    0.1342    0.0000 H   0  0  0  0  0  0  0  0  0  0  0  0
    6.4208    0.3854    0.0000 H   0  0  0  0  0  0  0  0  0  0  0  0
    8.6547   -0.6517   -0.0000 H   0  0  0  0  0  0  0  0  0  0  0  0
    9.0248   -4.1657   -0.0000 H   0  0  0  0  0  0  0  0  0  0  0  0
    6.8085   -4.5821   -0.0000 H   0  0  0  0  0  0  0  0  0  0  0  0
  1  2  1  0  0  0  0
  1 19  1  0  0  0  0
  1 20  1  0  0  0  0
  1 21  1  0  0  0  0
  2 18  1  0  0  0  0
  2  3  2  0  0  0  0
  3  4  1  0  0  0  0
  3 22  1  0  0  0  0
  4  5  1  0  0  0  0
  4 17  1  0  0  0  0
  5 15  1  0  0  0  0
  5  6  2  0  0  0  0
  6  7  1  0  0  0  0
  6 23  1  0  0  0  0
  7 13  2  0  0  0  0
  7  8  1  0  0  0  0
  8  9  2  0  0  0  0
  8 24  1  0  0  0  0
  9 10  1  0  0  0  0
  9 25  1  0  0  0  0
 10 11  1  0  0  0  0
 10 12  2  0  0  0  0
 11 26  1  0  0  0  0
 12 13  1  0  0  0  0
 12 27  1  0  0  0  0
 13 14  1  0  0  0  0
 14 15  1  0  0  0  0
 15 16  2  0  0  0  0
 17 18  2  0  0  0  0
M  END
$$$$
