
 OpenBabel03202621382D

 34 34  0  0  1  0  0  0  0  0999 V2000
    3.6622    0.3393    0.0000 C   0  0  0  0  0  0  0  0  0  0  0  0
    2.9190    1.0084    0.0000 S   0  0  0  0  0  0  0  0  0  0  0  0
    1.2560    0.8342    0.5220 C   0  0  2  0  0  0  0  0  0  0  0  0
    0.4136    1.6718   -0.4696 C   0  0  0  0  0  0  0  0  0  0  0  0
   -0.9643    1.3482   -0.4446 O   0  0  0  0  0  0  0  0  0  0  0  0
    0.9501   -0.6026    0.5225 C   0  0  0  0  0  0  0  0  0  0  0  0
    1.2271   -1.1629    1.8571 N   0  0  0  0  0  0  0  0  0  0  0  0
    1.2057   -2.5564    1.9398 C   0  0  0  0  0  0  0  0  0  0  0  0
   -0.1922   -2.5740    1.9679 C   0  0  0  0  0  0  0  0  0  0  0  0
   -0.9785   -3.1140    0.8578 C   0  0  0  0  0  0  0  0  0  0  0  0
   -2.0823   -2.2433    0.0000 C   0  0  0  0  0  0  0  0  0  0  0  0
   -2.4890   -1.3298    0.0000 C   0  0  0  0  0  0  0  0  0  0  0  0
   -2.6701   -3.0523    0.0000 C   0  0  0  0  0  0  0  0  0  0  0  0
   -0.6359   -1.5605    2.7650 N   0  0  0  0  0  0  0  0  0  0  0  0
    0.4008   -0.7359    2.8550 N   0  0  0  0  0  0  0  0  0  0  0  0
    3.9270    0.3659    1.0752 H   0  0  0  0  0  0  0  0  0  0  0  0
    4.4210    0.9264   -0.5509 H   0  0  0  0  0  0  0  0  0  0  0  0
    4.4574   -0.3766    0.0000 H   0  0  0  0  0  0  0  0  0  0  0  0
    1.1303    1.2938    1.5088 H   0  0  0  0  0  0  0  0  0  0  0  0
    0.7368    1.5302   -1.5093 H   0  0  0  0  0  0  0  0  0  0  0  0
    0.5112    2.7399   -0.2429 H   0  0  0  0  0  0  0  0  0  0  0  0
   -1.3113    1.6078    0.4349 H   0  0  0  0  0  0  0  0  0  0  0  0
   -0.1110   -0.7109    0.3370 H   0  0  0  0  0  0  0  0  0  0  0  0
    1.4610   -1.2116   -0.2359 H   0  0  0  0  0  0  0  0  0  0  0  0
    1.9022   -3.1303    1.3377 H   0  0  0  0  0  0  0  0  0  0  0  0
   -0.2489   -3.4658    0.0968 H   0  0  0  0  0  0  0  0  0  0  0  0
   -1.3627   -4.0775    1.2558 H   0  0  0  0  0  0  0  0  0  0  0  0
   -1.4400   -2.1919   -0.9057 H   0  0  0  0  0  0  0  0  0  0  0  0
   -3.3388   -1.3190   -0.7516 H   0  0  0  0  0  0  0  0  0  0  0  0
   -2.7380   -1.1548    1.0812 H   0  0  0  0  0  0  0  0  0  0  0  0
   -2.9242   -0.3523    0.0000 H   0  0  0  0  0  0  0  0  0  0  0  0
   -3.0915   -3.1161   -1.0497 H   0  0  0  0  0  0  0  0  0  0  0  0
   -3.4220   -2.9114    0.8425 H   0  0  0  0  0  0  0  0  0  0  0  0
   -3.2990   -3.9179    0.0000 H   0  0  0  0  0  0  0  0  0  0  0  0
  1  2  1  0  0  0  0
  1 16  1  0  0  0  0
  1 17  1  0  0  0  0
  1 18  1  0  0  0  0
  2  3  1  0  0  0  0
  3  4  1  0  0  0  0
  3  6  1  0  0  0  0
  3 19  1  6  0  0  0
  4  5  1  0  0  0  0
  4 20  1  0  0  0  0
  4 21  1  0  0  0  0
  5 22  1  0  0  0  0
  6  7  1  0  0  0  0
  6 23  1  0  0  0  0
  6 24  1  0  0  0  0
  7 15  1  0  0  0  0
  7  8  1  0  0  0  0
  8  9  2  0  0  0  0
  8 25  1  0  0  0  0
  9 10  1  0  0  0  0
  9 14  1  0  0  0  0
 10 11  1  0  0  0  0
 10 26  1  0  0  0  0
 10 27  1  0  0  0  0
 11 12  1  0  0  0  0
 11 13  1  0  0  0  0
 11 28  1  0  0  0  0
 12 29  1  0  0  0  0
 12 30  1  0  0  0  0
 12 31  1  0  0  0  0
 13 32  1  0  0  0  0
 13 33  1  0  0  0  0
 13 34  1  0  0  0  0
 14 15  2  0  0  0  0
M  END
$$$$
