
 OpenBabel03202621302D

 30 31  0  0  0  0  0  0  0  0999 V2000
    3.6527   -0.4296    0.0000 C   0  0  0  0  0  0  0  0  0  0  0  0
    3.0649    0.3795    0.0000 S   0  0  0  0  0  0  0  0  0  0  0  0
    1.7904    0.2265    1.1922 C   0  0  0  0  0  0  0  0  0  0  0  0
    1.3218    1.5170    2.1513 S   0  0  0  0  0  0  0  0  0  0  0  0
    1.2971   -1.0647    1.2671 N   0  0  0  0  0  0  0  0  0  0  0  0
    0.0258   -1.3241    0.7789 C   0  0  0  0  0  0  0  0  0  0  0  0
   -0.3989   -2.5629    0.2512 C   0  0  0  0  0  0  0  0  0  0  0  0
   -1.6398   -2.3048   -0.2957 C   0  0  0  0  0  0  0  0  0  0  0  0
   -1.9507   -1.0278    0.0738 N   0  0  0  0  0  0  0  0  0  0  0  0
   -3.1326   -0.2174   -0.1971 C   0  0  0  0  0  0  0  0  0  0  0  0
   -4.4964   -0.8562   -0.0950 C   0  0  0  0  0  0  0  0  0  0  0  0
   -4.7670   -2.1452    0.3975 C   0  0  0  0  0  0  0  0  0  0  0  0
   -6.0724   -2.6324    0.4521 C   0  0  0  0  0  0  0  0  0  0  0  0
   -7.1402   -1.8260    0.0595 C   0  0  0  0  0  0  0  0  0  0  0  0
   -6.8889   -0.5361   -0.3810 C   0  0  0  0  0  0  0  0  0  0  0  0
   -7.9102    0.2580   -0.7243 F   0  0  0  0  0  0  0  0  0  0  0  0
   -5.5893   -0.0526   -0.4677 C   0  0  0  0  0  0  0  0  0  0  0  0
   -0.9157   -0.3981    0.6482 N   0  0  0  0  0  0  0  0  0  0  0  0
    3.2576   -0.9353   -0.9037 H   0  0  0  0  0  0  0  0  0  0  0  0
    4.6092    0.0534   -0.2765 H   0  0  0  0  0  0  0  0  0  0  0  0
    4.2816   -1.2953    0.0000 H   0  0  0  0  0  0  0  0  0  0  0  0
    1.9294   -1.8016    0.9923 H   0  0  0  0  0  0  0  0  0  0  0  0
    0.1462   -3.4917    0.1956 H   0  0  0  0  0  0  0  0  0  0  0  0
   -2.3129   -2.9255   -0.8705 H   0  0  0  0  0  0  0  0  0  0  0  0
   -3.1070    0.6067    0.5319 H   0  0  0  0  0  0  0  0  0  0  0  0
   -2.9829    0.2035   -1.2002 H   0  0  0  0  0  0  0  0  0  0  0  0
   -3.9728   -2.7958    0.7581 H   0  0  0  0  0  0  0  0  0  0  0  0
   -6.2613   -3.6413    0.8108 H   0  0  0  0  0  0  0  0  0  0  0  0
   -8.1616   -2.1867    0.1158 H   0  0  0  0  0  0  0  0  0  0  0  0
   -5.4381    0.9670   -0.8121 H   0  0  0  0  0  0  0  0  0  0  0  0
  1  2  1  0  0  0  0
  1 19  1  0  0  0  0
  1 20  1  0  0  0  0
  1 21  1  0  0  0  0
  2  3  1  0  0  0  0
  3  4  2  0  0  0  0
  3  5  1  0  0  0  0
  5  6  1  0  0  0  0
  5 22  1  0  0  0  0
  6 18  2  0  0  0  0
  6  7  1  0  0  0  0
  7  8  2  0  0  0  0
  7 23  1  0  0  0  0
  8  9  1  0  0  0  0
  8 24  1  0  0  0  0
  9 10  1  0  0  0  0
  9 18  1  0  0  0  0
 10 11  1  0  0  0  0
 10 25  1  0  0  0  0
 10 26  1  0  0  0  0
 11 17  2  0  0  0  0
 11 12  1  0  0  0  0
 12 13  2  0  0  0  0
 12 27  1  0  0  0  0
 13 14  1  0  0  0  0
 13 28  1  0  0  0  0
 14 15  2  0  0  0  0
 14 29  1  0  0  0  0
 15 16  1  0  0  0  0
 15 17  1  0  0  0  0
 17 30  1  0  0  0  0
M  END
$$$$
