
 OpenBabel03202621352D

 36 38  0  0  0  0  0  0  0  0999 V2000
   -4.3301   -3.5000    0.0000 C   0  0  0  0  0  0  0  0  0  0  0  0
   -3.4641   -3.0000    0.0000 C   0  0  0  0  0  0  0  0  0  0  0  0
   -3.0273   -1.7329   -0.1145 C   0  0  0  0  0  0  0  0  0  0  0  0
   -4.3301   -1.5000    0.0000 C   0  0  0  0  0  0  0  0  0  0  0  0
   -5.1962   -2.0000    0.0000 C   0  0  0  0  0  0  0  0  0  0  0  0
   -4.3301   -0.5000    0.0000 C   0  0  0  0  0  0  0  0  0  0  0  0
   -5.1962    0.0000    0.0000 C   0  0  0  0  0  0  0  0  0  0  0  0
   -3.0776    0.5392   -0.0261 C   0  0  0  0  0  0  0  0  0  0  0  0
   -1.7606    0.1373   -0.1116 C   0  0  0  0  0  0  0  0  0  0  0  0
   -0.5385    0.8449   -0.1090 C   0  0  0  0  0  0  0  0  0  0  0  0
    0.6512    0.1105   -0.1603 C   0  0  0  0  0  0  0  0  0  0  0  0
    0.5520   -1.2792   -0.2011 C   0  0  0  0  0  0  0  0  0  0  0  0
   -0.6155   -1.9436   -0.2342 N   0  0  0  0  0  0  0  0  0  0  0  0
   -1.7335   -1.2035   -0.1828 C   0  0  0  0  0  0  0  0  0  0  0  0
    1.7693   -2.1198   -0.1083 C   0  0  0  0  0  0  0  0  0  0  0  0
    1.7385   -3.3316    0.0737 O   0  0  0  0  0  0  0  0  0  0  0  0
    3.0751   -1.3518   -0.1712 C   0  0  0  0  0  0  0  0  0  0  0  0
    2.9636   -0.0529   -0.7442 O   0  0  0  0  0  0  0  0  0  0  0  0
    1.9930    0.7504   -0.0746 C   0  0  0  0  0  0  0  0  0  0  0  0
   -4.3875   -3.8829    1.0748 H   0  0  0  0  0  0  0  0  0  0  0  0
   -4.0827   -4.4385   -0.5817 H   0  0  0  0  0  0  0  0  0  0  0  0
   -5.2567   -4.0350    0.0000 H   0  0  0  0  0  0  0  0  0  0  0  0
   -2.8005   -3.4023   -0.8178 H   0  0  0  0  0  0  0  0  0  0  0  0
   -2.7946   -3.3267    0.8463 H   0  0  0  0  0  0  0  0  0  0  0  0
   -5.6898   -1.8119    1.0194 H   0  0  0  0  0  0  0  0  0  0  0  0
   -5.6830   -1.8233   -1.0247 H   0  0  0  0  0  0  0  0  0  0  0  0
   -6.1229   -2.5350    0.0000 H   0  0  0  0  0  0  0  0  0  0  0  0
   -5.1006    0.6475    0.9149 H   0  0  0  0  0  0  0  0  0  0  0  0
   -5.1428    0.5601   -0.9760 H   0  0  0  0  0  0  0  0  0  0  0  0
   -6.1229    0.5350    0.0000 H   0  0  0  0  0  0  0  0  0  0  0  0
   -3.3092    1.6089    0.0140 H   0  0  0  0  0  0  0  0  0  0  0  0
   -0.5388    1.9277   -0.0336 H   0  0  0  0  0  0  0  0  0  0  0  0
    3.7585   -1.9244   -0.8017 H   0  0  0  0  0  0  0  0  0  0  0  0
    3.4905   -1.2810    0.8371 H   0  0  0  0  0  0  0  0  0  0  0  0
    1.9838    1.7255   -0.5753 H   0  0  0  0  0  0  0  0  0  0  0  0
    2.2842    0.9034    0.9702 H   0  0  0  0  0  0  0  0  0  0  0  0
  1  2  1  0  0  0  0
  1 20  1  0  0  0  0
  1 21  1  0  0  0  0
  1 22  1  0  0  0  0
  2  3  1  0  0  0  0
  2 23  1  0  0  0  0
  2 24  1  0  0  0  0
  3 14  2  0  0  0  0
  3  4  1  0  0  0  0
  4  5  1  0  0  0  0
  4  6  2  0  0  0  0
  5 25  1  0  0  0  0
  5 26  1  0  0  0  0
  5 27  1  0  0  0  0
  6  7  1  0  0  0  0
  6  8  1  0  0  0  0
  7 28  1  0  0  0  0
  7 29  1  0  0  0  0
  7 30  1  0  0  0  0
  8  9  2  0  0  0  0
  8 31  1  0  0  0  0
  9 14  1  0  0  0  0
  9 10  1  0  0  0  0
 10 11  2  0  0  0  0
 10 32  1  0  0  0  0
 11 19  1  0  0  0  0
 11 12  1  0  0  0  0
 12 13  2  0  0  0  0
 12 15  1  0  0  0  0
 13 14  1  0  0  0  0
 15 16  2  0  0  0  0
 15 17  1  0  0  0  0
 17 18  1  0  0  0  0
 17 33  1  0  0  0  0
 17 34  1  0  0  0  0
 18 19  1  0  0  0  0
 19 35  1  0  0  0  0
 19 36  1  0  0  0  0
M  END
$$$$
