
 OpenBabel03202621362D

 21 21  0  0  0  0  0  0  0  0999 V2000
    0.8090    3.5878    0.0000 C   0  0  0  0  0  0  0  0  0  0  0  0
   -0.0570    3.0878    0.0000 S   0  0  0  0  0  0  0  0  0  0  0  0
   -0.6037    1.4880    0.0651 C   0  0  0  0  0  0  0  0  0  0  0  0
   -0.6670    1.1349    1.5417 C   0  0  0  0  0  0  0  0  0  0  0  0
   -0.0411   -0.1671    1.5154 N   0  0  0  0  0  0  0  0  0  0  0  0
    1.2816   -0.1245    1.1333 C   0  0  0  0  0  0  0  0  0  0  0  0
    1.3090   -0.9511    0.0000 C   0  0  0  0  0  0  0  0  0  0  0  0
    1.8968   -1.7601    0.0000 C   0  0  0  0  0  0  0  0  0  0  0  0
   -0.0122   -1.2409   -0.3249 N   0  0  0  0  0  0  0  0  0  0  0  0
   -0.7368   -1.0673    0.7830 N   0  0  0  0  0  0  0  0  0  0  0  0
    1.0669    3.4946   -1.0726 H   0  0  0  0  0  0  0  0  0  0  0  0
    0.4181    4.6082    0.1726 H   0  0  0  0  0  0  0  0  0  0  0  0
    1.7356    4.1228    0.0000 H   0  0  0  0  0  0  0  0  0  0  0  0
    0.0346    0.9820   -0.6542 H   0  0  0  0  0  0  0  0  0  0  0  0
   -1.6155    1.4225   -0.3457 H   0  0  0  0  0  0  0  0  0  0  0  0
   -1.6816    1.0399    1.9303 H   0  0  0  0  0  0  0  0  0  0  0  0
   -0.0692    1.7479    2.2377 H   0  0  0  0  0  0  0  0  0  0  0  0
    2.0467    0.1905    1.8324 H   0  0  0  0  0  0  0  0  0  0  0  0
    1.6702   -2.2661    0.9778 H   0  0  0  0  0  0  0  0  0  0  0  0
    2.9054   -1.2808   -0.0233 H   0  0  0  0  0  0  0  0  0  0  0  0
    2.5257   -2.6257    0.0000 H   0  0  0  0  0  0  0  0  0  0  0  0
  1  2  1  0  0  0  0
  1 11  1  0  0  0  0
  1 12  1  0  0  0  0
  1 13  1  0  0  0  0
  2  3  1  0  0  0  0
  3  4  1  0  0  0  0
  3 14  1  0  0  0  0
  3 15  1  0  0  0  0
  4  5  1  0  0  0  0
  4 16  1  0  0  0  0
  4 17  1  0  0  0  0
  5 10  1  0  0  0  0
  5  6  1  0  0  0  0
  6  7  2  0  0  0  0
  6 18  1  0  0  0  0
  7  8  1  0  0  0  0
  7  9  1  0  0  0  0
  8 19  1  0  0  0  0
  8 20  1  0  0  0  0
  8 21  1  0  0  0  0
  9 10  2  0  0  0  0
M  END
$$$$
