
 OpenBabel03202621342D

 31 33  0  0  0  0  0  0  0  0999 V2000
    0.8090   -1.5878    0.0000 C   0  0  0  0  0  0  0  0  0  0  0  0
    0.0000   -1.0000    0.0000 C   0  0  0  0  0  0  0  0  0  0  0  0
   -1.2866   -1.3321    0.0000 C   0  0  0  0  0  0  0  0  0  0  0  0
   -1.9000   -0.1503    0.0000 N   0  0  0  0  0  0  0  0  0  0  0  0
   -3.2486   -0.0374    0.0000 C   0  0  0  0  0  0  0  0  0  0  0  0
   -3.9119   -1.2473    0.0000 C   0  0  0  0  0  0  0  0  0  0  0  0
   -5.2407   -1.2055    0.0000 C   0  0  0  0  0  0  0  0  0  0  0  0
   -5.9172    0.0189   -0.0000 C   0  0  0  0  0  0  0  0  0  0  0  0
   -7.3474   -0.0479   -0.0000 C   0  0  0  0  0  0  0  0  0  0  0  0
   -8.0205   -1.5999    0.0000 S   0  0  0  0  0  0  0  0  0  0  0  0
   -9.5895   -1.0471    0.0000 C   0  0  0  0  0  0  0  0  0  0  0  0
  -10.5845   -2.0720    0.0000 C   0  0  0  0  0  0  0  0  0  0  0  0
  -11.7914   -1.8726    0.0000 O   0  0  0  0  0  0  0  0  0  0  0  0
  -10.0684   -3.3252    0.0000 O   0  0  0  0  0  0  0  0  0  0  0  0
   -9.6208    0.3362   -0.0000 C   0  0  0  0  0  0  0  0  0  0  0  0
   -8.3128    0.9236   -0.0000 C   0  0  0  0  0  0  0  0  0  0  0  0
   -5.2192    1.2364    0.0000 C   0  0  0  0  0  0  0  0  0  0  0  0
   -3.8475    1.2120    0.0000 C   0  0  0  0  0  0  0  0  0  0  0  0
   -1.0722    0.8931    0.0000 N   0  0  0  0  0  0  0  0  0  0  0  0
    0.1222    0.3731   -0.0000 N   0  0  0  0  0  0  0  0  0  0  0  0
    0.4907   -2.6447   -0.0000 H   0  0  0  0  0  0  0  0  0  0  0  0
    1.7123   -0.9545   -0.0000 H   0  0  0  0  0  0  0  0  0  0  0  0
    1.6746   -2.2167    0.0000 H   0  0  0  0  0  0  0  0  0  0  0  0
   -1.7029   -2.3245    0.0000 H   0  0  0  0  0  0  0  0  0  0  0  0
   -3.5010   -2.2454    0.0000 H   0  0  0  0  0  0  0  0  0  0  0  0
   -5.6982   -2.1914   -0.0000 H   0  0  0  0  0  0  0  0  0  0  0  0
  -10.8198   -3.9421   -0.0000 H   0  0  0  0  0  0  0  0  0  0  0  0
  -10.5239    0.9238    0.0000 H   0  0  0  0  0  0  0  0  0  0  0  0
   -8.0817    1.9825   -0.0000 H   0  0  0  0  0  0  0  0  0  0  0  0
   -5.7195    2.1974   -0.0000 H   0  0  0  0  0  0  0  0  0  0  0  0
   -3.2639    2.1285    0.0000 H   0  0  0  0  0  0  0  0  0  0  0  0
  1  2  1  0  0  0  0
  1 21  1  0  0  0  0
  1 22  1  0  0  0  0
  1 23  1  0  0  0  0
  2 20  1  0  0  0  0
  2  3  2  0  0  0  0
  3  4  1  0  0  0  0
  3 24  1  0  0  0  0
  4  5  1  0  0  0  0
  4 19  1  0  0  0  0
  5 18  2  0  0  0  0
  5  6  1  0  0  0  0
  6  7  2  0  0  0  0
  6 25  1  0  0  0  0
  7  8  1  0  0  0  0
  7 26  1  0  0  0  0
  8  9  1  0  0  0  0
  8 17  2  0  0  0  0
  9 16  1  0  0  0  0
  9 10  2  0  0  0  0
 10 11  2  0  0  0  0
 11 12  1  0  0  0  0
 11 15  1  0  0  0  0
 12 13  2  0  0  0  0
 12 14  1  0  0  0  0
 14 27  1  0  0  0  0
 15 16  2  0  0  0  0
 15 28  1  0  0  0  0
 16 29  1  0  0  0  0
 17 18  1  0  0  0  0
 17 30  1  0  0  0  0
 18 31  1  0  0  0  0
 19 20  2  0  0  0  0
M  END
$$$$
