
 OpenBabel03202621342D

 45 46  0  0  1  0  0  0  0  0999 V2000
   -1.7321    3.0000    0.0000 C   0  0  0  0  0  0  0  0  0  0  0  0
   -1.7321    2.0000    0.0000 C   0  0  0  0  0  0  0  0  0  0  0  0
   -1.9783    1.1717   -1.3819 C   0  0  0  0  0  0  0  0  0  0  0  0
   -0.7321    2.0000    0.0000 C   0  0  0  0  0  0  0  0  0  0  0  0
   -2.6477    1.2798    1.1099 C   0  0  0  0  0  0  0  0  0  0  0  0
   -3.1314    1.9089    2.0721 O   0  0  0  0  0  0  0  0  0  0  0  0
   -3.0260   -0.1935    1.0222 C   0  0  2  0  0  0  0  0  0  0  0  0
   -3.8003   -0.4112   -0.1698 O   0  0  0  0  0  0  0  0  0  0  0  0
   -5.0632    0.1678   -0.1676 C   0  0  0  0  0  0  0  0  0  0  0  0
   -5.3276    1.4265   -0.5453 C   0  0  0  0  0  0  0  0  0  0  0  0
   -6.5548    2.0046   -0.6821 O   0  0  0  0  0  0  0  0  0  0  0  0
   -7.6047    1.4244    0.0757 C   0  0  0  0  0  0  0  0  0  0  0  0
   -7.5626   -0.0809    0.2449 C   0  0  0  0  0  0  0  0  0  0  0  0
   -6.2376   -0.6949   -0.0223 C   0  0  0  0  0  0  0  0  0  0  0  0
   -6.0967   -1.9300   -0.0864 O   0  0  0  0  0  0  0  0  0  0  0  0
   -1.8128   -1.1757    1.1098 C   0  0  1  0  0  0  0  0  0  0  0  0
   -2.1643   -2.3383    1.8631 O   0  0  0  0  0  0  0  0  0  0  0  0
   -0.4480   -0.6731    1.5951 C   0  0  0  0  0  0  0  0  0  0  0  0
   -0.2597    0.3374    2.5563 C   0  0  0  0  0  0  0  0  0  0  0  0
    0.9436    1.0732    2.5786 C   0  0  0  0  0  0  0  0  0  0  0  0
    1.9777    0.7462    1.7008 C   0  0  0  0  0  0  0  0  0  0  0  0
    3.2646    1.8588    1.4235 Cl  0  0  0  0  0  0  0  0  0  0  0  0
    1.8828   -0.3961    0.9165 C   0  0  0  0  0  0  0  0  0  0  0  0
    0.6845   -1.1147    0.8852 C   0  0  0  0  0  0  0  0  0  0  0  0
   -1.9708    3.3320    1.0642 H   0  0  0  0  0  0  0  0  0  0  0  0
   -2.6837    3.2074   -0.5665 H   0  0  0  0  0  0  0  0  0  0  0  0
   -1.7321    4.0700    0.0000 H   0  0  0  0  0  0  0  0  0  0  0  0
   -1.7981    0.1011   -1.2432 H   0  0  0  0  0  0  0  0  0  0  0  0
   -1.2572    1.4071   -2.1928 H   0  0  0  0  0  0  0  0  0  0  0  0
   -2.9455    1.3178   -1.8320 H   0  0  0  0  0  0  0  0  0  0  0  0
   -0.2718    2.4765   -0.9756 H   0  0  0  0  0  0  0  0  0  0  0  0
   -0.3576    2.3103    1.0405 H   0  0  0  0  0  0  0  0  0  0  0  0
    0.3379    2.0000    0.0000 H   0  0  0  0  0  0  0  0  0  0  0  0
   -3.6868   -0.4205    1.8725 H   0  0  0  0  0  0  0  0  0  0  0  0
   -4.5949    2.1503   -0.8566 H   0  0  0  0  0  0  0  0  0  0  0  0
   -7.6264    1.9141    1.0557 H   0  0  0  0  0  0  0  0  0  0  0  0
   -8.5447    1.7048   -0.4194 H   0  0  0  0  0  0  0  0  0  0  0  0
   -8.3008   -0.5457   -0.4221 H   0  0  0  0  0  0  0  0  0  0  0  0
   -7.8413   -0.3342    1.2759 H   0  0  0  0  0  0  0  0  0  0  0  0
   -1.6501   -1.5551    0.0914 H   0  0  0  0  0  0  0  0  0  0  0  0
   -2.8161   -2.8273    1.3247 H   0  0  0  0  0  0  0  0  0  0  0  0
   -1.0860    0.7109    3.1605 H   0  0  0  0  0  0  0  0  0  0  0  0
    0.9865    2.0090    3.1371 H   0  0  0  0  0  0  0  0  0  0  0  0
    2.6934   -0.6790    0.2508 H   0  0  0  0  0  0  0  0  0  0  0  0
    0.6064   -1.9670    0.2129 H   0  0  0  0  0  0  0  0  0  0  0  0
  1  2  1  0  0  0  0
  1 25  1  0  0  0  0
  1 26  1  0  0  0  0
  1 27  1  0  0  0  0
  2  3  1  0  0  0  0
  2  4  1  0  0  0  0
  2  5  1  0  0  0  0
  3 28  1  0  0  0  0
  3 29  1  0  0  0  0
  3 30  1  0  0  0  0
  4 31  1  0  0  0  0
  4 32  1  0  0  0  0
  4 33  1  0  0  0  0
  5  6  2  0  0  0  0
  7  5  1  0  0  0  0
  7  8  1  0  0  0  0
  7 16  1  0  0  0  0
  7 34  1  6  0  0  0
  8  9  1  0  0  0  0
  9 14  1  0  0  0  0
  9 10  2  0  0  0  0
 10 11  1  0  0  0  0
 10 35  1  0  0  0  0
 11 12  1  0  0  0  0
 12 13  1  0  0  0  0
 12 36  1  0  0  0  0
 12 37  1  0  0  0  0
 13 14  1  0  0  0  0
 13 38  1  0  0  0  0
 13 39  1  0  0  0  0
 14 15  2  0  0  0  0
 16 17  1  0  0  0  0
 16 18  1  0  0  0  0
 16 40  1  1  0  0  0
 17 41  1  0  0  0  0
 18 24  2  0  0  0  0
 18 19  1  0  0  0  0
 19 20  2  0  0  0  0
 19 42  1  0  0  0  0
 20 21  1  0  0  0  0
 20 43  1  0  0  0  0
 21 22  1  0  0  0  0
 21 23  2  0  0  0  0
 23 24  1  0  0  0  0
 23 44  1  0  0  0  0
 24 45  1  0  0  0  0
M  END
$$$$
