
 OpenBabel03202621302D

 15 15  0  0  0  0  0  0  0  0999 V2000
   -3.2409   -2.5068   -0.0000 O   0  0  0  0  0  0  0  0  0  0  0  0
   -2.1715   -3.1023   -0.0000 C   0  0  0  0  0  0  0  0  0  0  0  0
   -0.5846   -2.3711   -0.0000 S   0  0  0  0  0  0  0  0  0  0  0  0
   -0.7420   -0.5938   -0.0000 C   0  0  0  0  0  0  0  0  0  0  0  0
   -1.9410    0.1270   -0.0000 C   0  0  0  0  0  0  0  0  0  0  0  0
   -1.9363    1.5262   -0.0000 C   0  0  0  0  0  0  0  0  0  0  0  0
   -3.4323    2.3796    0.0000 Cl  0  0  0  0  0  0  0  0  0  0  0  0
   -0.7408    2.2364    0.0000 C   0  0  0  0  0  0  0  0  0  0  0  0
    0.4637    1.5422   -0.0000 C   0  0  0  0  0  0  0  0  0  0  0  0
    0.4552    0.1471   -0.0000 C   0  0  0  0  0  0  0  0  0  0  0  0
    1.6434   -0.4790   -0.0000 F   0  0  0  0  0  0  0  0  0  0  0  0
   -2.1478   -4.2045    0.0000 H   0  0  0  0  0  0  0  0  0  0  0  0
   -2.9066   -0.3632   -0.0000 H   0  0  0  0  0  0  0  0  0  0  0  0
   -0.7432    3.3240    0.0000 H   0  0  0  0  0  0  0  0  0  0  0  0
    1.4117    2.0717   -0.0000 H   0  0  0  0  0  0  0  0  0  0  0  0
  1  2  2  0  0  0  0
  2  3  1  0  0  0  0
  2 12  1  0  0  0  0
  3  4  1  0  0  0  0
  4 10  2  0  0  0  0
  4  5  1  0  0  0  0
  5  6  2  0  0  0  0
  5 13  1  0  0  0  0
  6  7  1  0  0  0  0
  6  8  1  0  0  0  0
  8  9  2  0  0  0  0
  8 14  1  0  0  0  0
  9 10  1  0  0  0  0
  9 15  1  0  0  0  0
 10 11  1  0  0  0  0
M  END
$$$$
