
 OpenBabel03202621352D

 34 34  0  0  1  0  0  0  0  0999 V2000
   -2.5981   -1.5000    0.0000 C   0  0  0  0  0  0  0  0  0  0  0  0
   -1.7321   -2.0000    0.0000 C   0  0  0  0  0  0  0  0  0  0  0  0
   -1.4584   -1.3111    1.3934 O   0  0  0  0  0  0  0  0  0  0  0  0
   -1.3567    0.0889    1.2096 C   0  0  0  0  0  0  0  0  0  0  0  0
   -2.3820    0.9252    1.6730 C   0  0  0  0  0  0  0  0  0  0  0  0
   -2.6895    2.0696    0.9402 C   0  0  0  0  0  0  0  0  0  0  0  0
   -2.0406    2.3135   -0.2662 C   0  0  0  0  0  0  0  0  0  0  0  0
   -1.0186    1.4646   -0.6970 C   0  0  0  0  0  0  0  0  0  0  0  0
   -0.5403    0.3672    0.0974 C   0  0  0  0  0  0  0  0  0  0  0  0
    0.8660   -0.5000    0.0000 C   0  0  1  0  0  0  0  0  0  0  0  0
    0.3660   -1.3660    0.0000 C   0  0  0  0  0  0  0  0  0  0  0  0
    1.7321   -1.0000    0.0000 S   0  0  0  0  0  0  0  0  0  0  0  0
    2.5981   -0.5000    0.0000 C   0  0  0  0  0  0  0  0  0  0  0  0
    1.3660    0.3660    0.0000 C   0  0  2  0  0  0  0  0  0  0  0  0
    1.2775    0.9906   -1.6021 O   0  0  0  0  0  0  0  0  0  0  0  0
    1.2362    1.4815    1.2862 C   0  0  0  0  0  0  0  0  0  0  0  0
    1.2339    2.2325    2.1764 N   0  0  0  0  0  0  0  0  0  0  0  0
   -2.5551   -0.8843   -0.9456 H   0  0  0  0  0  0  0  0  0  0  0  0
   -3.3045   -2.3333   -0.2579 H   0  0  0  0  0  0  0  0  0  0  0  0
   -3.5247   -0.9650    0.0000 H   0  0  0  0  0  0  0  0  0  0  0  0
   -1.7503   -3.0711    0.3104 H   0  0  0  0  0  0  0  0  0  0  0  0
   -1.3521   -2.0055   -1.0541 H   0  0  0  0  0  0  0  0  0  0  0  0
   -3.0101    0.6251    2.5026 H   0  0  0  0  0  0  0  0  0  0  0  0
   -3.4931    2.7340    1.2526 H   0  0  0  0  0  0  0  0  0  0  0  0
   -2.3108    3.1729   -0.8777 H   0  0  0  0  0  0  0  0  0  0  0  0
   -0.5865    1.7449   -1.6572 H   0  0  0  0  0  0  0  0  0  0  0  0
    0.2949   -1.7813   -1.1582 H   0  0  0  0  0  0  0  0  0  0  0  0
    0.3995   -1.9680    1.0988 H   0  0  0  0  0  0  0  0  0  0  0  0
   -0.1690   -2.2926    0.0000 H   0  0  0  0  0  0  0  0  0  0  0  0
    3.1260   -1.0208   -0.8495 H   0  0  0  0  0  0  0  0  0  0  0  0
    3.0893   -0.9500    0.9122 H   0  0  0  0  0  0  0  0  0  0  0  0
    3.5247    0.0350    0.0000 H   0  0  0  0  0  0  0  0  0  0  0  0
    2.1661    1.2608   -0.1591 H   0  0  0  0  0  0  0  0  0  0  0  0
    1.6407    0.2659   -2.1447 H   0  0  0  0  0  0  0  0  0  0  0  0
  1  2  1  0  0  0  0
  1 18  1  0  0  0  0
  1 19  1  0  0  0  0
  1 20  1  0  0  0  0
  2  3  1  0  0  0  0
  2 21  1  0  0  0  0
  2 22  1  0  0  0  0
  3  4  1  0  0  0  0
  4  9  2  0  0  0  0
  4  5  1  0  0  0  0
  5  6  2  0  0  0  0
  5 23  1  0  0  0  0
  6  7  1  0  0  0  0
  6 24  1  0  0  0  0
  7  8  2  0  0  0  0
  7 25  1  0  0  0  0
  8  9  1  0  0  0  0
  8 26  1  0  0  0  0
  9 10  1  0  0  0  0
 10 11  1  0  0  0  0
 10 12  1  6  0  0  0
 10 14  1  0  0  0  0
 11 27  1  0  0  0  0
 11 28  1  0  0  0  0
 11 29  1  0  0  0  0
 12 13  1  0  0  0  0
 13 30  1  0  0  0  0
 13 31  1  0  0  0  0
 13 32  1  0  0  0  0
 14 15  1  0  0  0  0
 14 16  1  0  0  0  0
 14 33  1  6  0  0  0
 15 34  1  0  0  0  0
 16 17  3  0  0  0  0
M  END
$$$$
