
 OpenBabel03202621392D

 25 25  0  0  1  0  0  0  0  0999 V2000
    1.2588    0.9659    0.0000 C   0  0  0  0  0  0  0  0  0  0  0  0
    1.0000    0.0000    0.0000 C   0  0  0  0  0  0  0  0  0  0  0  0
    1.9968   -0.0802    0.0000 C   0  0  0  0  0  0  0  0  0  0  0  0
    0.5000   -0.8660    0.0000 C   0  0  0  0  0  0  0  0  0  0  0  0
    0.0000    0.0000    0.0000 C   0  0  2  0  0  0  0  0  0  0  0  0
   -0.5000    0.8660    0.0000 C   0  0  0  0  0  0  0  0  0  0  0  0
   -1.0000    0.0000    0.0000 C   0  0  0  0  0  0  0  0  0  0  0  0
   -1.8170   -1.6663    0.0000 N   0  0  0  0  0  0  0  0  0  0  0  0
   -3.3656   -1.6975    0.0000 C   0  0  0  0  0  0  0  0  0  0  0  0
   -4.1029   -0.7125   -0.0000 O   0  0  0  0  0  0  0  0  0  0  0  0
    2.3104    1.6657    0.0000 H   0  0  0  0  0  0  0  0  0  0  0  0
    0.8527    1.9906   -0.0000 H   0  0  0  0  0  0  0  0  0  0  0  0
    1.5357    1.9994    0.0000 H   0  0  0  0  0  0  0  0  0  0  0  0
    2.3882   -1.1715   -0.0000 H   0  0  0  0  0  0  0  0  0  0  0  0
    3.0448    0.5536   -0.0000 H   0  0  0  0  0  0  0  0  0  0  0  0
    3.0634   -0.1660    0.0000 H   0  0  0  0  0  0  0  0  0  0  0  0
    0.9448   -1.9098    0.0000 H   0  0  0  0  0  0  0  0  0  0  0  0
    0.1153   -1.8919   -0.0000 H   0  0  0  0  0  0  0  0  0  0  0  0
   -0.4444    2.0758    0.0000 H   0  0  0  0  0  0  0  0  0  0  0  0
   -2.2516    0.3858    0.0000 H   0  0  0  0  0  0  0  0  0  0  0  0
   -1.0350    1.7926    0.0000 H   0  0  0  0  0  0  0  0  0  0  0  0
   -2.0992    1.4208   -0.0000 H   0  0  0  0  0  0  0  0  0  0  0  0
   -1.8809   -0.7583   -0.0000 H   0  0  0  0  0  0  0  0  0  0  0  0
   -1.3872   -2.5840    0.0000 H   0  0  0  0  0  0  0  0  0  0  0  0
   -3.7334   -2.7256    0.0000 H   0  0  0  0  0  0  0  0  0  0  0  0
  1  2  1  0  0  0  0
  1 11  1  0  0  0  0
  1 12  1  0  0  0  0
  1 13  1  0  0  0  0
  2  5  1  0  0  0  0
  2  3  1  0  0  0  0
  2  4  1  0  0  0  0
  3 14  1  0  0  0  0
  3 15  1  0  0  0  0
  3 16  1  0  0  0  0
  4  5  1  0  0  0  0
  4 17  1  0  0  0  0
  4 18  1  0  0  0  0
  5  6  1  6  0  0  0
  5  7  1  0  0  0  0
  6 19  1  0  0  0  0
  6 20  1  0  0  0  0
  6 21  1  0  0  0  0
  7  8  1  0  0  0  0
  7 22  1  0  0  0  0
  7 23  1  0  0  0  0
  8  9  1  0  0  0  0
  8 24  1  0  0  0  0
  9 10  2  0  0  0  0
  9 25  1  0  0  0  0
M  END
$$$$
