
 OpenBabel03202621282D

 17 18  0  0  0  0  0  0  0  0999 V2000
   -0.2788    1.7601    0.0000 C   0  0  0  0  0  0  0  0  0  0  0  0
    0.3090    0.9511    0.0000 C   0  0  0  0  0  0  0  0  0  0  0  0
    1.3090    0.9511    0.0000 C   0  0  0  0  0  0  0  0  0  0  0  0
    1.6180   -0.0000    0.0000 N   0  0  0  0  0  0  0  0  0  0  0  0
    2.5691   -0.3090    0.0000 C   0  0  0  0  0  0  0  0  0  0  0  0
    3.3122    0.3601    0.0000 C   0  0  0  0  0  0  0  0  0  0  0  0
    4.2633    0.0511    0.0000 N   0  0  0  0  0  0  0  0  0  0  0  0
    5.0723    0.6389    0.0000 N   0  0  0  0  0  0  0  0  0  0  0  0
    5.8813    0.0511    0.0000 C   0  0  0  0  0  0  0  0  0  0  0  0
    6.8324    0.3601    0.0000 N   0  3  0  0  0  0  0  0  0  0  0  0
    7.5755   -0.3090    0.0000 O   0  0  0  0  0  0  0  0  0  0  0  0
    7.0403    1.3383    0.0000 O   0  5  0  0  0  0  0  0  0  0  0  0
    5.5723   -0.9000    0.0000 N   0  0  0  0  0  0  0  0  0  0  0  0
    4.5723   -0.9000    0.0000 C   0  0  0  0  0  0  0  0  0  0  0  0
    3.9845   -1.7090    0.0000 N   0  0  0  0  0  0  0  0  0  0  0  0
    0.8090   -0.5878    0.0000 N   0  0  0  0  0  0  0  0  0  0  0  0
    0.0000   -0.0000    0.0000 N   0  0  0  0  0  0  0  0  0  0  0  0
  1  2  1  0  0  0  0
  2 17  1  0  0  0  0
  2  3  2  0  0  0  0
  3  4  1  0  0  0  0
  4  5  1  0  0  0  0
  4 16  1  0  0  0  0
  5  6  1  0  0  0  0
  6  7  1  0  0  0  0
  7 14  1  0  0  0  0
  7  8  1  0  0  0  0
  8  9  2  0  0  0  0
  9 10  1  0  0  0  0
  9 13  1  0  0  0  0
 10 11  2  0  0  0  0
 10 12  1  0  0  0  0
 13 14  2  0  0  0  0
 14 15  1  0  0  0  0
 16 17  2  0  0  0  0
M  CHG  2  10   1  12  -1
M  END
$$$$
