
 OpenBabel03202621322D

 34 35  0  0  0  0  0  0  0  0999 V2000
    6.2798    2.0248    0.0000 C   0  0  0  0  0  0  0  0  0  0  0  0
    5.5366    2.6939    0.0000 O   0  0  0  0  0  0  0  0  0  0  0  0
    4.5477    2.8773   -0.9049 C   0  0  0  0  0  0  0  0  0  0  0  0
    4.2026    3.9638   -1.3388 O   0  0  0  0  0  0  0  0  0  0  0  0
    3.7952    1.6912   -0.8826 C   0  0  0  0  0  0  0  0  0  0  0  0
    4.4146    0.5264   -1.1963 N   0  0  0  0  0  0  0  0  0  0  0  0
    4.5468   -0.2024    0.0000 C   0  0  0  0  0  0  0  0  0  0  0  0
    4.9535   -1.1160    0.0000 C   0  0  0  0  0  0  0  0  0  0  0  0
    3.3622    0.2185    0.6696 C   0  0  0  0  0  0  0  0  0  0  0  0
    2.8163    1.3622    0.0201 C   0  0  0  0  0  0  0  0  0  0  0  0
    1.7490    2.1798    0.3406 N   0  0  0  0  0  0  0  0  0  0  0  0
    0.4230    1.7709    0.3149 C   0  0  0  0  0  0  0  0  0  0  0  0
   -0.7090    2.9504    0.0001 S   0  0  0  0  0  0  0  0  0  0  0  0
    0.2165    0.4296    0.3853 O   0  0  0  0  0  0  0  0  0  0  0  0
   -0.7255   -0.6818    0.2593 C   0  0  0  0  0  0  0  0  0  0  0  0
   -0.1674   -1.8858    0.0467 C   0  0  0  0  0  0  0  0  0  0  0  0
   -0.9977   -3.1040   -0.1542 C   0  0  0  0  0  0  0  0  0  0  0  0
   -2.3608   -2.8743   -0.5259 O   0  0  0  0  0  0  0  0  0  0  0  0
   -2.8723   -1.6710   -0.1142 C   0  0  0  0  0  0  0  0  0  0  0  0
   -2.1829   -0.5949    0.3164 C   0  0  0  0  0  0  0  0  0  0  0  0
   -2.6369    0.4686    0.8092 O   0  5  0  0  0  0  0  0  0  0  0  0
    6.3012    1.7851    1.0828 H   0  0  0  0  0  0  0  0  0  0  0  0
    7.1338    2.7048   -0.1960 H   0  0  0  0  0  0  0  0  0  0  0  0
    7.0750    1.3089    0.0000 H   0  0  0  0  0  0  0  0  0  0  0  0
    5.0520    0.4134   -1.9750 H   0  0  0  0  0  0  0  0  0  0  0  0
    4.3869   -1.6298   -0.8192 H   0  0  0  0  0  0  0  0  0  0  0  0
    6.0022   -0.8731   -0.2919 H   0  0  0  0  0  0  0  0  0  0  0  0
    5.3887   -2.0935    0.0000 H   0  0  0  0  0  0  0  0  0  0  0  0
    2.9003   -0.3011    1.5036 H   0  0  0  0  0  0  0  0  0  0  0  0
    1.7996    3.1298   -0.0192 H   0  0  0  0  0  0  0  0  0  0  0  0
    0.9087   -1.9812    0.0216 H   0  0  0  0  0  0  0  0  0  0  0  0
   -0.5541   -3.7079   -0.9524 H   0  0  0  0  0  0  0  0  0  0  0  0
   -0.9860   -3.7130    0.7583 H   0  0  0  0  0  0  0  0  0  0  0  0
   -3.9559   -1.6782   -0.1684 H   0  0  0  0  0  0  0  0  0  0  0  0
  1  2  1  0  0  0  0
  1 22  1  0  0  0  0
  1 23  1  0  0  0  0
  1 24  1  0  0  0  0
  2  3  1  0  0  0  0
  3  4  2  0  0  0  0
  3  5  1  0  0  0  0
  5 10  2  0  0  0  0
  5  6  1  0  0  0  0
  6  7  1  0  0  0  0
  6 25  1  0  0  0  0
  7  8  1  0  0  0  0
  7  9  2  0  0  0  0
  8 26  1  0  0  0  0
  8 27  1  0  0  0  0
  8 28  1  0  0  0  0
  9 10  1  0  0  0  0
  9 29  1  0  0  0  0
 10 11  1  0  0  0  0
 11 12  1  0  0  0  0
 11 30  1  0  0  0  0
 12 13  2  0  0  0  0
 12 14  1  0  0  0  0
 14 15  1  0  0  0  0
 15 20  1  0  0  0  0
 15 16  2  0  0  0  0
 16 17  1  0  0  0  0
 16 31  1  0  0  0  0
 17 18  1  0  0  0  0
 17 32  1  0  0  0  0
 17 33  1  0  0  0  0
 18 19  1  0  0  0  0
 19 20  2  0  0  0  0
 19 34  1  0  0  0  0
 20 21  1  0  0  0  0
M  CHG  1  21  -1
M  END
$$$$
