
 OpenBabel03202621352D

 14 14  0  0  1  0  0  0  0  0999 V2000
    2.7321   -1.0000    0.0000 C   0  0  0  0  0  0  0  0  0  0  0  0
    2.7321    0.0000    0.0000 S   0  0  0  0  0  0  0  0  0  0  0  0
    1.1992    0.6885    0.4604 C   0  0  0  0  0  0  0  0  0  0  0  0
    1.1332    1.5842    1.2905 O   0  0  0  0  0  0  0  0  0  0  0  0
    0.0068    0.1821   -0.2836 C   0  0  1  0  0  0  0  0  0  0  0  0
   -0.7959   -0.9761    0.2577 C   0  0  0  0  0  0  0  0  0  0  0  0
   -1.3085    0.3758    0.3578 N   0  0  0  0  0  0  0  0  0  0  0  0
    2.4524   -1.1810   -1.0574 H   0  0  0  0  0  0  0  0  0  0  0  0
    3.8216   -1.1711    0.0910 H   0  0  0  0  0  0  0  0  0  0  0  0
    2.7321   -2.0700    0.0000 H   0  0  0  0  0  0  0  0  0  0  0  0
    0.0223    0.3460   -1.3559 H   0  0  0  0  0  0  0  0  0  0  0  0
   -0.4972   -1.4310    1.1960 H   0  0  0  0  0  0  0  0  0  0  0  0
   -1.2996   -1.6362   -0.4374 H   0  0  0  0  0  0  0  0  0  0  0  0
   -2.0219    0.5729   -0.3459 H   0  0  0  0  0  0  0  0  0  0  0  0
  1  2  1  0  0  0  0
  1  8  1  0  0  0  0
  1  9  1  0  0  0  0
  1 10  1  0  0  0  0
  2  3  1  0  0  0  0
  3  4  2  0  0  0  0
  5  3  1  0  0  0  0
  5  6  1  0  0  0  0
  5  7  1  0  0  0  0
  5 11  1  6  0  0  0
  6  7  1  0  0  0  0
  6 12  1  0  0  0  0
  6 13  1  0  0  0  0
  7 14  1  0  0  0  0
M  END
$$$$
