
 OpenBabel03202621302D

 14 13  0  0  0  0  0  0  0  0999 V2000
    2.5981    0.5000    0.0000 C   0  0  0  0  0  0  0  0  0  0  0  0
    2.5981    1.5000    0.0000 O   0  0  0  0  0  0  0  0  0  0  0  0
    1.4367    2.3067    0.0000 C   0  0  0  0  0  0  0  0  0  0  0  0
    1.6853    3.5195    0.0000 O   0  0  0  0  0  0  0  0  0  0  0  0
    0.0519    1.8538    0.0000 N   0  0  0  0  0  0  0  0  0  0  0  0
   -0.8738    2.8818   -0.0000 C   0  0  0  0  0  0  0  0  0  0  0  0
   -2.1017    2.8375   -0.0000 O   0  0  0  0  0  0  0  0  0  0  0  0
   -0.5714    0.5946    0.0000 C   0  0  0  0  0  0  0  0  0  0  0  0
   -1.7649    0.3022   -0.0000 O   0  0  0  0  0  0  0  0  0  0  0  0
    1.6319    0.0964   -0.0000 H   0  0  0  0  0  0  0  0  0  0  0  0
    3.6535    0.2116   -0.0000 H   0  0  0  0  0  0  0  0  0  0  0  0
    2.5981   -0.5700    0.0000 H   0  0  0  0  0  0  0  0  0  0  0  0
   -0.4235    3.8896   -0.0000 H   0  0  0  0  0  0  0  0  0  0  0  0
    0.0692   -0.2839    0.0000 H   0  0  0  0  0  0  0  0  0  0  0  0
  1  2  1  0  0  0  0
  1 10  1  0  0  0  0
  1 11  1  0  0  0  0
  1 12  1  0  0  0  0
  2  3  1  0  0  0  0
  3  4  2  0  0  0  0
  3  5  1  0  0  0  0
  5  6  1  0  0  0  0
  5  8  1  0  0  0  0
  6  7  2  0  0  0  0
  6 13  1  0  0  0  0
  8  9  2  0  0  0  0
  8 14  1  0  0  0  0
M  END
$$$$
