
 OpenBabel03202621282D

  9  9  0  0  0  0  0  0  0  0999 V2000
    1.7601   -0.2788    0.0000 C   0  0  0  0  0  0  0  0  0  0  0  0
    0.8090   -0.5878    0.0000 C   0  0  0  0  0  0  0  0  0  0  0  0
    0.5000   -1.5388    0.0000 C   0  0  0  0  0  0  0  0  0  0  0  0
   -0.5000   -1.5388    0.0000 N   0  0  0  0  0  0  0  0  0  0  0  0
   -1.0878   -2.3479    0.0000 C   0  0  0  0  0  0  0  0  0  0  0  0
   -0.6810   -3.2614    0.0000 C   0  0  0  0  0  0  0  0  0  0  0  0
   -1.2688   -4.0704    0.0000 N   0  0  0  0  0  0  0  0  0  0  0  0
   -0.8090   -0.5878    0.0000 N   0  0  0  0  0  0  0  0  0  0  0  0
    0.0000   -0.0000    0.0000 N   0  0  0  0  0  0  0  0  0  0  0  0
  1  2  1  0  0  0  0
  2  9  1  0  0  0  0
  2  3  2  0  0  0  0
  3  4  1  0  0  0  0
  4  5  1  0  0  0  0
  4  8  1  0  0  0  0
  5  6  1  0  0  0  0
  6  7  1  0  0  0  0
  8  9  2  0  0  0  0
M  END
$$$$
