
 OpenBabel03202621312D

 23 23  0  0  0  0  0  0  0  0999 V2000
    3.1313    0.6215   -0.1880 C   0  0  0  0  0  0  0  0  0  0  0  0
    1.7957    0.6882   -0.3032 C   0  0  0  0  0  0  0  0  0  0  0  0
    0.7623   -0.3750    0.0467 C   0  0  0  0  0  0  0  0  0  0  0  0
    1.1647   -1.0766    1.2604 O   0  0  0  0  0  0  0  0  0  0  0  0
    2.0270   -2.1225    1.2319 C   0  0  0  0  0  0  0  0  0  0  0  0
    2.6062   -2.5967    0.2732 O   0  0  0  0  0  0  0  0  0  0  0  0
    0.4117   -1.3194   -1.1147 C   0  0  0  0  0  0  0  0  0  0  0  0
   -0.6303   -2.3518   -0.6783 C   0  0  0  0  0  0  0  0  0  0  0  0
   -1.4849   -1.8821    0.3648 O   0  0  0  0  0  0  0  0  0  0  0  0
   -1.7979   -0.5023    0.2352 C   0  0  0  0  0  0  0  0  0  0  0  0
   -0.5515    0.3646    0.4234 C   0  0  0  0  0  0  0  0  0  0  0  0
    3.6524   -0.2681    0.1411 H   0  0  0  0  0  0  0  0  0  0  0  0
    3.7466    1.4779   -0.4448 H   0  0  0  0  0  0  0  0  0  0  0  0
    1.4013    1.6342   -0.6728 H   0  0  0  0  0  0  0  0  0  0  0  0
    2.1301   -2.5082    2.2582 H   0  0  0  0  0  0  0  0  0  0  0  0
    0.0028   -0.7302   -1.9479 H   0  0  0  0  0  0  0  0  0  0  0  0
    1.2837   -1.8350   -1.5353 H   0  0  0  0  0  0  0  0  0  0  0  0
   -0.1429   -3.2549   -0.3010 H   0  0  0  0  0  0  0  0  0  0  0  0
   -1.2500   -2.6586   -1.5318 H   0  0  0  0  0  0  0  0  0  0  0  0
   -2.2540   -0.3291   -0.7475 H   0  0  0  0  0  0  0  0  0  0  0  0
   -2.5516   -0.2411    0.9859 H   0  0  0  0  0  0  0  0  0  0  0  0
   -0.7065    1.2689   -0.1834 H   0  0  0  0  0  0  0  0  0  0  0  0
   -0.5052    0.6981    1.4680 H   0  0  0  0  0  0  0  0  0  0  0  0
  1  2  2  0  0  0  0
  1 12  1  0  0  0  0
  1 13  1  0  0  0  0
  2  3  1  0  0  0  0
  2 14  1  0  0  0  0
  3 11  1  0  0  0  0
  3  4  1  0  0  0  0
  3  7  1  0  0  0  0
  4  5  1  0  0  0  0
  5  6  2  0  0  0  0
  5 15  1  0  0  0  0
  7  8  1  0  0  0  0
  7 16  1  0  0  0  0
  7 17  1  0  0  0  0
  8  9  1  0  0  0  0
  8 18  1  0  0  0  0
  8 19  1  0  0  0  0
  9 10  1  0  0  0  0
 10 11  1  0  0  0  0
 10 20  1  0  0  0  0
 10 21  1  0  0  0  0
 11 22  1  0  0  0  0
 11 23  1  0  0  0  0
M  END
$$$$
