
 OpenBabel03202621342D

 45 45  0  0  1  0  0  0  0  0999 V2000
   -1.4382   -5.8868    0.1450 C   0  0  0  0  0  0  0  0  0  0  0  0
   -0.1167   -5.2182    0.5573 C   0  0  1  0  0  0  0  0  0  0  0  0
    1.0306   -5.8298   -0.2828 C   0  0  0  0  0  0  0  0  0  0  0  0
    2.3873   -5.1568   -0.1767 C   0  0  0  0  0  0  0  0  0  0  0  0
    2.5322   -4.1657   -1.1797 O   0  0  0  0  0  0  0  0  0  0  0  0
   -0.2268   -3.6631    0.6177 C   0  0  0  0  0  0  0  0  0  0  0  0
   -0.2855   -2.8749   -0.7267 C   0  0  0  0  0  0  0  0  0  0  0  0
   -1.3618   -1.7074   -1.0658 C   0  0  2  0  0  0  0  0  0  0  0  0
   -0.6374   -0.5880   -1.5827 O   0  0  0  0  0  0  0  0  0  0  0  0
   -0.5729    0.5353   -0.8135 C   0  0  0  0  0  0  0  0  0  0  0  0
   -1.5535    1.4424   -0.9168 C   0  0  0  0  0  0  0  0  0  0  0  0
   -1.4934    2.7169   -0.1599 C   0  0  0  0  0  0  0  0  0  0  0  0
   -0.2002    3.1010    0.3175 O   0  0  0  0  0  0  0  0  0  0  0  0
    0.7092    2.0861    0.4660 C   0  0  0  0  0  0  0  0  0  0  0  0
    0.6012    0.8237    0.0130 C   0  0  0  0  0  0  0  0  0  0  0  0
    1.3896   -0.1517    0.1771 O   0  5  0  0  0  0  0  0  0  0  0  0
   -2.5981   -1.5000    0.0000 C   0  0  0  0  0  0  0  0  0  0  0  0
   -3.5981   -1.5000    0.0000 C   0  0  0  0  0  0  0  0  0  0  0  0
   -3.0981   -2.3660    0.0000 C   0  0  0  0  0  0  0  0  0  0  0  0
   -1.9892   -1.0985    1.2528 O   0  0  0  0  0  0  0  0  0  0  0  0
   -2.2788   -5.5102    0.7371 H   0  0  0  0  0  0  0  0  0  0  0  0
   -1.3877   -6.9671    0.3058 H   0  0  0  0  0  0  0  0  0  0  0  0
   -1.6590   -5.7212   -0.9144 H   0  0  0  0  0  0  0  0  0  0  0  0
    0.0639   -5.5399    1.5941 H   0  0  0  0  0  0  0  0  0  0  0  0
    1.1460   -6.8680    0.0633 H   0  0  0  0  0  0  0  0  0  0  0  0
    0.7253   -5.8970   -1.3356 H   0  0  0  0  0  0  0  0  0  0  0  0
    3.1678   -5.8974   -0.3806 H   0  0  0  0  0  0  0  0  0  0  0  0
    2.5808   -4.7320    0.8158 H   0  0  0  0  0  0  0  0  0  0  0  0
    2.4313   -3.2895   -0.7537 H   0  0  0  0  0  0  0  0  0  0  0  0
    0.6500   -3.3071    1.1755 H   0  0  0  0  0  0  0  0  0  0  0  0
   -1.0538   -3.4375    1.2854 H   0  0  0  0  0  0  0  0  0  0  0  0
   -0.3538   -3.6082   -1.5387 H   0  0  0  0  0  0  0  0  0  0  0  0
    0.6978   -2.4240   -0.8513 H   0  0  0  0  0  0  0  0  0  0  0  0
   -1.8226   -2.0540   -2.0117 H   0  0  0  0  0  0  0  0  0  0  0  0
   -2.4118    1.2397   -1.5415 H   0  0  0  0  0  0  0  0  0  0  0  0
   -2.1750    2.6616    0.6976 H   0  0  0  0  0  0  0  0  0  0  0  0
   -1.8460    3.5247   -0.8106 H   0  0  0  0  0  0  0  0  0  0  0  0
    1.5785    2.4271    1.0130 H   0  0  0  0  0  0  0  0  0  0  0  0
   -3.8568   -0.6315    0.7416 H   0  0  0  0  0  0  0  0  0  0  0  0
   -3.7894   -0.8655   -0.9824 H   0  0  0  0  0  0  0  0  0  0  0  0
   -4.6681   -1.5000    0.0000 H   0  0  0  0  0  0  0  0  0  0  0  0
   -2.8860   -2.8621    1.0764 H   0  0  0  0  0  0  0  0  0  0  0  0
   -2.5657   -3.1512   -0.6511 H   0  0  0  0  0  0  0  0  0  0  0  0
   -3.6331   -3.2926    0.0000 H   0  0  0  0  0  0  0  0  0  0  0  0
   -1.0781   -0.7699    1.0698 H   0  0  0  0  0  0  0  0  0  0  0  0
  1 21  1  0  0  0  0
  1 22  1  0  0  0  0
  1 23  1  0  0  0  0
  2  1  1  0  0  0  0
  2  3  1  0  0  0  0
  2  6  1  0  0  0  0
  2 24  1  1  0  0  0
  3  4  1  0  0  0  0
  3 25  1  0  0  0  0
  3 26  1  0  0  0  0
  4  5  1  0  0  0  0
  4 27  1  0  0  0  0
  4 28  1  0  0  0  0
  5 29  1  0  0  0  0
  6  7  1  0  0  0  0
  6 30  1  0  0  0  0
  6 31  1  0  0  0  0
  7 32  1  0  0  0  0
  7 33  1  0  0  0  0
  8  7  1  0  0  0  0
  8  9  1  0  0  0  0
  8 17  1  0  0  0  0
  8 34  1  6  0  0  0
  9 10  1  0  0  0  0
 10 15  1  0  0  0  0
 10 11  2  0  0  0  0
 11 12  1  0  0  0  0
 11 35  1  0  0  0  0
 12 13  1  0  0  0  0
 12 36  1  0  0  0  0
 12 37  1  0  0  0  0
 13 14  1  0  0  0  0
 14 15  2  0  0  0  0
 14 38  1  0  0  0  0
 15 16  1  0  0  0  0
 17 18  1  0  0  0  0
 17 19  1  0  0  0  0
 17 20  1  0  0  0  0
 18 39  1  0  0  0  0
 18 40  1  0  0  0  0
 18 41  1  0  0  0  0
 19 42  1  0  0  0  0
 19 43  1  0  0  0  0
 19 44  1  0  0  0  0
 20 45  1  0  0  0  0
M  CHG  1  16  -1
M  END
$$$$
