
 OpenBabel03202621312D

 20 21  0  0  0  0  0  0  0  0999 V2000
    1.4945   -0.9706    0.0000 C   0  0  0  0  0  0  0  0  0  0  0  0
    0.5000   -0.8660    0.0000 C   0  0  0  0  0  0  0  0  0  0  0  0
   -0.4545   -1.8741   -0.0000 C   0  0  0  0  0  0  0  0  0  0  0  0
   -1.6845   -1.2831    0.0000 N   0  0  0  0  0  0  0  0  0  0  0  0
   -2.9314   -1.9287    0.0000 C   0  0  0  0  0  0  0  0  0  0  0  0
   -2.9727   -3.3187    0.0000 C   0  0  0  0  0  0  0  0  0  0  0  0
   -4.1168   -4.0318    0.0000 N   0  0  0  0  0  0  0  0  0  0  0  0
   -5.2981   -3.3769    0.0000 N   0  0  0  0  0  0  0  0  0  0  0  0
   -5.3039   -2.0294    0.0000 C   0  0  0  0  0  0  0  0  0  0  0  0
   -6.5468   -1.4533   -0.0000 O   0  0  0  0  0  0  0  0  0  0  0  0
   -4.1506   -1.2554    0.0000 C   0  0  0  0  0  0  0  0  0  0  0  0
   -4.3611    0.4635    0.0000 Cl  0  0  0  0  0  0  0  0  0  0  0  0
   -1.5113    0.0490   -0.0000 N   0  0  0  0  0  0  0  0  0  0  0  0
   -0.2112    0.3115   -0.0000 N   0  0  0  0  0  0  0  0  0  0  0  0
    1.7487   -2.0431    0.0000 H   0  0  0  0  0  0  0  0  0  0  0  0
    1.9368    0.0375    0.0000 H   0  0  0  0  0  0  0  0  0  0  0  0
    2.5586   -1.0825    0.0000 H   0  0  0  0  0  0  0  0  0  0  0  0
   -0.3076   -2.9434    0.0000 H   0  0  0  0  0  0  0  0  0  0  0  0
   -2.0960   -3.9592    0.0000 H   0  0  0  0  0  0  0  0  0  0  0  0
   -6.3987   -0.4906   -0.0000 H   0  0  0  0  0  0  0  0  0  0  0  0
  1  2  1  0  0  0  0
  1 15  1  0  0  0  0
  1 16  1  0  0  0  0
  1 17  1  0  0  0  0
  2 14  1  0  0  0  0
  2  3  2  0  0  0  0
  3  4  1  0  0  0  0
  3 18  1  0  0  0  0
  4  5  1  0  0  0  0
  4 13  1  0  0  0  0
  5 11  2  0  0  0  0
  5  6  1  0  0  0  0
  6  7  2  0  0  0  0
  6 19  1  0  0  0  0
  7  8  1  0  0  0  0
  8  9  2  0  0  0  0
  9 10  1  0  0  0  0
  9 11  1  0  0  0  0
 10 20  1  0  0  0  0
 11 12  1  0  0  0  0
 13 14  2  0  0  0  0
M  END
$$$$
