
 OpenBabel03202621302D

 24 23  0  0  0  0  0  0  0  0999 V2000
    6.0622   -1.5000    0.0000 C   0  0  0  0  0  0  0  0  0  0  0  0
    6.0622   -0.5000    0.0000 S   0  0  0  0  0  0  0  0  0  0  0  0
    4.4876    0.0795   -0.7090 C   0  0  0  0  0  0  0  0  0  0  0  0
    3.2311   -0.6377   -0.2328 C   0  0  0  0  0  0  0  0  0  0  0  0
    2.0150    0.2770   -0.3555 C   0  0  0  0  0  0  0  0  0  0  0  0
    0.8484   -0.5026   -0.1094 O   0  0  0  0  0  0  0  0  0  0  0  0
   -0.3363    0.2966   -0.1399 C   0  0  0  0  0  0  0  0  0  0  0  0
   -1.5463   -0.6330   -0.0089 C   0  0  0  0  0  0  0  0  0  0  0  0
   -2.8116    0.0966    0.0533 N   0  0  0  0  0  0  0  0  0  0  0  0
    5.7881   -1.6762    1.0589 H   0  0  0  0  0  0  0  0  0  0  0  0
    7.1512   -1.6710   -0.0963 H   0  0  0  0  0  0  0  0  0  0  0  0
    6.0622   -2.5700    0.0000 H   0  0  0  0  0  0  0  0  0  0  0  0
    4.4306    1.1409   -0.4371 H   0  0  0  0  0  0  0  0  0  0  0  0
    4.5526    0.0486   -1.8039 H   0  0  0  0  0  0  0  0  0  0  0  0
    3.0758   -1.5488   -0.8222 H   0  0  0  0  0  0  0  0  0  0  0  0
    3.3137   -0.9575    0.8134 H   0  0  0  0  0  0  0  0  0  0  0  0
    1.9583    0.7125   -1.3600 H   0  0  0  0  0  0  0  0  0  0  0  0
    2.0811    1.0868    0.3783 H   0  0  0  0  0  0  0  0  0  0  0  0
   -0.3101    1.0078    0.6930 H   0  0  0  0  0  0  0  0  0  0  0  0
   -0.3913    0.8541   -1.0810 H   0  0  0  0  0  0  0  0  0  0  0  0
   -1.4374   -1.2579    0.8853 H   0  0  0  0  0  0  0  0  0  0  0  0
   -1.5644   -1.3197   -0.8631 H   0  0  0  0  0  0  0  0  0  0  0  0
   -2.8410    0.6503    0.9090 H   0  0  0  0  0  0  0  0  0  0  0  0
   -3.5742   -0.5758    0.1310 H   0  0  0  0  0  0  0  0  0  0  0  0
  1  2  1  0  0  0  0
  1 10  1  0  0  0  0
  1 11  1  0  0  0  0
  1 12  1  0  0  0  0
  2  3  1  0  0  0  0
  3  4  1  0  0  0  0
  3 13  1  0  0  0  0
  3 14  1  0  0  0  0
  4  5  1  0  0  0  0
  4 15  1  0  0  0  0
  4 16  1  0  0  0  0
  5  6  1  0  0  0  0
  5 17  1  0  0  0  0
  5 18  1  0  0  0  0
  6  7  1  0  0  0  0
  7  8  1  0  0  0  0
  7 19  1  0  0  0  0
  7 20  1  0  0  0  0
  8  9  1  0  0  0  0
  8 21  1  0  0  0  0
  8 22  1  0  0  0  0
  9 23  1  0  0  0  0
  9 24  1  0  0  0  0
M  END
$$$$
