
 OpenBabel03202621282D

 16 17  0  0  1  0  0  0  0  0999 V2000
    1.8605    0.6045    0.0000 C   0  0  0  0  0  0  0  0  0  0  0  0
    0.9945    0.1045    0.0000 C   0  0  1  0  0  0  0  0  0  0  0  0
    0.9945    1.1045    0.0000 C   0  0  0  0  0  0  0  0  0  0  0  0
    1.8605    1.6045    0.0000 O   0  0  0  0  0  0  0  0  0  0  0  0
    0.1285    1.6045    0.0000 O   0  0  0  0  0  0  0  0  0  0  0  0
   -0.7375    1.1045    0.0000 C   0  0  0  0  0  0  0  0  0  0  0  0
   -0.7375    0.1045    0.0000 C   0  0  0  0  0  0  0  0  0  0  0  0
   -1.6036   -0.3955    0.0000 O   0  0  0  0  0  0  0  0  0  0  0  0
   -2.4696    0.1045    0.0000 C   0  0  0  0  0  0  0  0  0  0  0  0
   -2.4696    1.1045    0.0000 C   0  0  0  0  0  0  0  0  0  0  0  0
   -1.6036    1.6045    0.0000 C   0  0  0  0  0  0  0  0  0  0  0  0
   -1.6036    2.6045    0.0000 O   0  0  0  0  0  0  0  0  0  0  0  0
    1.4013   -0.8090    0.0000 C   0  0  0  0  0  0  0  0  0  0  0  0
    0.6581   -1.4781    0.0000 C   0  0  0  0  0  0  0  0  0  0  0  0
   -0.2079   -0.9781    0.0000 C   0  0  0  0  0  0  0  0  0  0  0  0
   -0.0000   -0.0000    0.0000 C   0  0  0  0  0  0  0  0  0  0  0  0
  2  1  1  1  0  0  0
  2 16  1  0  0  0  0
  2  3  1  0  0  0  0
  2 13  1  0  0  0  0
  3  4  2  0  0  0  0
  3  5  1  0  0  0  0
  5  6  1  0  0  0  0
  6 11  1  0  0  0  0
  6  7  2  0  0  0  0
  7  8  1  0  0  0  0
  8  9  1  0  0  0  0
  9 10  1  0  0  0  0
 10 11  1  0  0  0  0
 11 12  2  0  0  0  0
 13 14  2  0  0  0  0
 14 15  1  0  0  0  0
 15 16  1  0  0  0  0
M  END
$$$$
