
 OpenBabel03202621282D

 23 25  0  0  1  0  0  0  0  0999 V2000
    4.4347    2.4945    0.0000 O   0  5  0  0  0  0  0  0  0  0  0  0
    4.4347    1.4945    0.0000 C   0  0  0  0  0  0  0  0  0  0  0  0
    5.3007    0.9945    0.0000 C   0  0  0  0  0  0  0  0  0  0  0  0
    5.3007   -0.0055    0.0000 C   0  0  0  0  0  0  0  0  0  0  0  0
    4.4347   -0.5055    0.0000 O   0  0  0  0  0  0  0  0  0  0  0  0
    3.5686   -0.0055    0.0000 C   0  0  0  0  0  0  0  0  0  0  0  0
    3.5686    0.9945    0.0000 C   0  0  0  0  0  0  0  0  0  0  0  0
    2.7026    1.4945    0.0000 O   0  0  0  0  0  0  0  0  0  0  0  0
    1.8366    0.9945    0.0000 C   0  0  1  0  0  0  0  0  0  0  0  0
    1.8366   -0.0055    0.0000 C   0  0  0  0  0  0  0  0  0  0  0  0
    2.7026   -0.5055    0.0000 O   0  0  0  0  0  0  0  0  0  0  0  0
    0.9706    1.4945    0.0000 C   0  0  0  0  0  0  0  0  0  0  0  0
    0.1045    0.9945    0.0000 N   0  0  0  0  0  0  0  0  0  0  0  0
   -0.8090    1.4013    0.0000 C   0  0  0  0  0  0  0  0  0  0  0  0
   -1.4781    0.6581    0.0000 C   0  0  0  0  0  0  0  0  0  0  0  0
   -2.4727    0.7626    0.0000 C   0  0  0  0  0  0  0  0  0  0  0  0
   -2.9727    1.6287    0.0000 C   0  0  0  0  0  0  0  0  0  0  0  0
   -3.9508    1.4208    0.0000 C   0  0  0  0  0  0  0  0  0  0  0  0
   -4.0553    0.4262    0.0000 C   0  0  0  0  0  0  0  0  0  0  0  0
   -4.9214   -0.0738    0.0000 Cl  0  0  0  0  0  0  0  0  0  0  0  0
   -3.1418    0.0195    0.0000 S   0  0  0  0  0  0  0  0  0  0  0  0
   -0.9781   -0.2079    0.0000 N   0  0  0  0  0  0  0  0  0  0  0  0
    0.0000    0.0000    0.0000 N   0  0  0  0  0  0  0  0  0  0  0  0
  1  2  1  0  0  0  0
  2  7  1  0  0  0  0
  2  3  2  0  0  0  0
  3  4  1  0  0  0  0
  4  5  1  0  0  0  0
  5  6  1  0  0  0  0
  6  7  2  0  0  0  0
  7  8  1  0  0  0  0
  8  9  1  0  0  0  0
  9 10  1  1  0  0  0
  9 12  1  0  0  0  0
 10 11  1  0  0  0  0
 12 13  1  0  0  0  0
 13 23  1  0  0  0  0
 13 14  1  0  0  0  0
 14 15  2  0  0  0  0
 15 16  1  0  0  0  0
 15 22  1  0  0  0  0
 16 21  1  0  0  0  0
 16 17  2  0  0  0  0
 17 18  1  0  0  0  0
 18 19  2  0  0  0  0
 19 20  1  0  0  0  0
 19 21  1  0  0  0  0
 22 23  2  0  0  0  0
M  CHG  1   1  -1
M  END
$$$$
