
 OpenBabel03202621282D

 21 23  0  0  0  0  0  0  0  0999 V2000
   -1.5878   -0.8090    0.0000 C   0  0  0  0  0  0  0  0  0  0  0  0
   -1.0000   -0.0000    0.0000 C   0  0  0  0  0  0  0  0  0  0  0  0
   -1.3090    0.9511    0.0000 C   0  0  0  0  0  0  0  0  0  0  0  0
   -0.5000    1.5388    0.0000 N   0  0  0  0  0  0  0  0  0  0  0  0
   -0.5000    2.5388    0.0000 C   0  0  0  0  0  0  0  0  0  0  0  0
   -1.3660    3.0388    0.0000 C   0  0  0  0  0  0  0  0  0  0  0  0
   -1.3660    4.0388    0.0000 C   0  0  0  0  0  0  0  0  0  0  0  0
   -0.5000    4.5388    0.0000 C   0  0  0  0  0  0  0  0  0  0  0  0
    0.3660    4.0388    0.0000 C   0  0  0  0  0  0  0  0  0  0  0  0
    0.3660    3.0388    0.0000 C   0  0  0  0  0  0  0  0  0  0  0  0
    1.2321    2.5388    0.0000 C   0  0  0  0  0  0  0  0  0  0  0  0
    1.2321    1.5388    0.0000 C   0  0  0  0  0  0  0  0  0  0  0  0
    2.0981    1.0388    0.0000 C   0  0  0  0  0  0  0  0  0  0  0  0
    2.9641    1.5388    0.0000 C   0  0  0  0  0  0  0  0  0  0  0  0
    2.9641    2.5388    0.0000 C   0  0  0  0  0  0  0  0  0  0  0  0
    2.0981    3.0388    0.0000 C   0  0  0  0  0  0  0  0  0  0  0  0
    2.0981    4.0388    0.0000 N   0  3  0  0  0  0  0  0  0  0  0  0
    1.2321    4.5388    0.0000 O   0  0  0  0  0  0  0  0  0  0  0  0
    2.9641    4.5388    0.0000 O   0  5  0  0  0  0  0  0  0  0  0  0
    0.3090    0.9511    0.0000 N   0  0  0  0  0  0  0  0  0  0  0  0
    0.0000    0.0000    0.0000 N   0  0  0  0  0  0  0  0  0  0  0  0
  1  2  1  0  0  0  0
  2 21  1  0  0  0  0
  2  3  2  0  0  0  0
  3  4  1  0  0  0  0
  4  5  1  0  0  0  0
  4 20  1  0  0  0  0
  5 10  2  0  0  0  0
  5  6  1  0  0  0  0
  6  7  2  0  0  0  0
  7  8  1  0  0  0  0
  8  9  2  0  0  0  0
  9 10  1  0  0  0  0
 10 11  1  0  0  0  0
 11 16  2  0  0  0  0
 11 12  1  0  0  0  0
 12 13  2  0  0  0  0
 13 14  1  0  0  0  0
 14 15  2  0  0  0  0
 15 16  1  0  0  0  0
 16 17  1  0  0  0  0
 17 18  2  0  0  0  0
 17 19  1  0  0  0  0
 20 21  2  0  0  0  0
M  CHG  2  17   1  19  -1
M  END
$$$$
