
 OpenBabel03202621342D

 20 21  0  0  0  0  0  0  0  0999 V2000
    3.0441    3.2035   -0.0000 O   0  0  0  0  0  0  0  0  0  0  0  0
    2.2928    2.2314    0.0000 C   0  0  0  0  0  0  0  0  0  0  0  0
    2.9616    0.6094    0.0000 S   0  0  0  0  0  0  0  0  0  0  0  0
    1.4784   -0.3471    0.0000 C   0  0  0  0  0  0  0  0  0  0  0  0
    1.5213   -1.7279    0.0000 C   0  0  0  0  0  0  0  0  0  0  0  0
    0.3170   -2.4217    0.0000 C   0  0  0  0  0  0  0  0  0  0  0  0
   -0.8723   -1.7046    0.0000 C   0  0  0  0  0  0  0  0  0  0  0  0
   -2.1729   -2.3638    0.0000 C   0  0  0  0  0  0  0  0  0  0  0  0
   -2.4264   -3.7616   -0.0000 C   0  0  0  0  0  0  0  0  0  0  0  0
   -3.7907   -3.8880    0.0000 C   0  0  0  0  0  0  0  0  0  0  0  0
   -4.2826   -2.6189   -0.0000 N   0  0  0  0  0  0  0  0  0  0  0  0
   -3.3317   -1.6808   -0.0000 N   0  0  0  0  0  0  0  0  0  0  0  0
   -0.8744   -0.3570    0.0000 N   0  0  0  0  0  0  0  0  0  0  0  0
    0.3048    0.3139   -0.0000 N   0  0  0  0  0  0  0  0  0  0  0  0
    1.2036    2.3818    0.0000 H   0  0  0  0  0  0  0  0  0  0  0  0
    2.4608   -2.2709    0.0000 H   0  0  0  0  0  0  0  0  0  0  0  0
    0.3278   -3.5047   -0.0000 H   0  0  0  0  0  0  0  0  0  0  0  0
   -1.7054   -4.5651    0.0000 H   0  0  0  0  0  0  0  0  0  0  0  0
   -4.4375   -4.7515    0.0000 H   0  0  0  0  0  0  0  0  0  0  0  0
   -5.2514   -2.3183    0.0000 H   0  0  0  0  0  0  0  0  0  0  0  0
  1  2  2  0  0  0  0
  2  3  1  0  0  0  0
  2 15  1  0  0  0  0
  3  4  1  0  0  0  0
  4 14  2  0  0  0  0
  4  5  1  0  0  0  0
  5  6  2  0  0  0  0
  5 16  1  0  0  0  0
  6  7  1  0  0  0  0
  6 17  1  0  0  0  0
  7  8  1  0  0  0  0
  7 13  2  0  0  0  0
  8 12  2  0  0  0  0
  8  9  1  0  0  0  0
  9 10  2  0  0  0  0
  9 18  1  0  0  0  0
 10 11  1  0  0  0  0
 10 19  1  0  0  0  0
 11 12  1  0  0  0  0
 11 20  1  0  0  0  0
 13 14  1  0  0  0  0
M  END
$$$$
