
 OpenBabel03202621282D

  9  9  0  0  0  0  0  0  0  0999 V2000
   -1.6730   -1.4483    0.0000 O   0  0  0  0  0  0  0  0  0  0  0  0
   -0.7071   -1.7071    0.0000 C   0  0  0  0  0  0  0  0  0  0  0  0
    0.0000   -1.0000    0.0000 N   0  0  0  0  0  0  0  0  0  0  0  0
    0.0000   -0.0000    0.0000 C   0  0  0  0  0  0  0  0  0  0  0  0
    1.0000   -0.0000    0.0000 C   0  0  0  0  0  0  0  0  0  0  0  0
    1.9659    0.2588    0.0000 O   0  0  0  0  0  0  0  0  0  0  0  0
    1.2588    0.9659    0.0000 C   0  0  0  0  0  0  0  0  0  0  0  0
    0.5517    1.6730    0.0000 F   0  0  0  0  0  0  0  0  0  0  0  0
    1.0000   -1.0000    0.0000 C   0  0  0  0  0  0  0  0  0  0  0  0
  1  2  2  0  0  0  0
  2  3  1  0  0  0  0
  3  9  1  0  0  0  0
  3  4  1  0  0  0  0
  4  5  1  0  0  0  0
  5  6  1  0  0  0  0
  5  7  1  0  0  0  0
  5  9  1  0  0  0  0
  7  8  1  0  0  0  0
M  END
$$$$
