
 OpenBabel03202621372D

 19 19  0  0  1  0  0  0  0  0999 V2000
    2.2953   -1.9260    0.0000 C   0  0  0  0  0  0  0  0  0  0  0  0
    2.5032   -0.9479    0.0000 S   0  0  0  0  0  0  0  0  0  0  0  0
    1.0821    0.0337   -0.2908 C   0  0  0  0  0  0  0  0  0  0  0  0
    1.1761    1.0372   -0.9886 O   0  0  0  0  0  0  0  0  0  0  0  0
   -0.2035   -0.3832    0.3999 C   0  0  1  0  0  0  0  0  0  0  0  0
   -0.8623   -1.6160   -0.1863 C   0  0  0  0  0  0  0  0  0  0  0  0
   -2.3295   -1.4283    0.1438 C   0  0  0  0  0  0  0  0  0  0  0  0
   -2.5382   -0.0395    0.4159 O   0  0  0  0  0  0  0  0  0  0  0  0
   -1.2987    0.6506    0.2114 C   0  0  0  0  0  0  0  0  0  0  0  0
    2.2882   -2.1126   -1.0934 H   0  0  0  0  0  0  0  0  0  0  0  0
    3.2560   -2.3051    0.3973 H   0  0  0  0  0  0  0  0  0  0  0  0
    2.0728   -2.9726    0.0000 H   0  0  0  0  0  0  0  0  0  0  0  0
   -0.0224   -0.5218    1.4730 H   0  0  0  0  0  0  0  0  0  0  0  0
   -0.4771   -2.5530    0.2262 H   0  0  0  0  0  0  0  0  0  0  0  0
   -0.7218   -1.6582   -1.2735 H   0  0  0  0  0  0  0  0  0  0  0  0
   -2.6154   -1.9943    1.0361 H   0  0  0  0  0  0  0  0  0  0  0  0
   -2.9768   -1.7372   -0.6825 H   0  0  0  0  0  0  0  0  0  0  0  0
   -1.2205    1.4801    0.9209 H   0  0  0  0  0  0  0  0  0  0  0  0
   -1.3216    1.0691   -0.8013 H   0  0  0  0  0  0  0  0  0  0  0  0
  1  2  1  0  0  0  0
  1 10  1  0  0  0  0
  1 11  1  0  0  0  0
  1 12  1  0  0  0  0
  2  3  1  0  0  0  0
  3  4  2  0  0  0  0
  5  3  1  0  0  0  0
  5  6  1  0  0  0  0
  5  9  1  0  0  0  0
  5 13  1  6  0  0  0
  6  7  1  0  0  0  0
  6 14  1  0  0  0  0
  6 15  1  0  0  0  0
  7  8  1  0  0  0  0
  7 16  1  0  0  0  0
  7 17  1  0  0  0  0
  8  9  1  0  0  0  0
  9 18  1  0  0  0  0
  9 19  1  0  0  0  0
M  END
$$$$
