
 OpenBabel03202621372D

 27 27  0  0  1  0  0  0  0  0999 V2000
    3.0366   -4.0826    0.0000 C   0  0  0  0  0  0  0  0  0  0  0  0
    3.4434   -3.1691    0.0000 S   0  0  0  0  0  0  0  0  0  0  0  0
    2.5870   -1.8968   -0.7666 C   0  0  0  0  0  0  0  0  0  0  0  0
    3.1628   -0.9616   -1.3058 O   0  0  0  0  0  0  0  0  0  0  0  0
    1.2441   -1.9548   -0.4978 N   0  0  0  0  0  0  0  0  0  0  0  0
    0.6744   -0.7438    0.0448 C   0  0  0  0  0  0  0  0  0  0  0  0
   -0.7678   -0.9490    0.4784 C   0  0  0  0  0  0  0  0  0  0  0  0
   -1.7630   -0.6239   -0.6365 C   0  0  1  0  0  0  0  0  0  0  0  0
   -3.1872   -0.5763   -0.1086 C   0  0  0  0  0  0  0  0  0  0  0  0
   -3.4214    0.8848    0.2292 C   0  0  0  0  0  0  0  0  0  0  0  0
   -2.1898    1.6106   -0.2728 C   0  0  0  0  0  0  0  0  0  0  0  0
   -1.5224    0.6951   -1.1432 O   0  0  0  0  0  0  0  0  0  0  0  0
    2.5254   -4.0521    0.9833 H   0  0  0  0  0  0  0  0  0  0  0  0
    3.9593   -4.6805    0.1265 H   0  0  0  0  0  0  0  0  0  0  0  0
    2.6013   -5.0601    0.0000 H   0  0  0  0  0  0  0  0  0  0  0  0
    0.9713   -2.7969   -0.0194 H   0  0  0  0  0  0  0  0  0  0  0  0
    1.2731   -0.5005    0.9325 H   0  0  0  0  0  0  0  0  0  0  0  0
    0.8129    0.0791   -0.6634 H   0  0  0  0  0  0  0  0  0  0  0  0
   -0.9312   -1.9737    0.8375 H   0  0  0  0  0  0  0  0  0  0  0  0
   -0.9458   -0.2889    1.3358 H   0  0  0  0  0  0  0  0  0  0  0  0
   -1.6583   -1.3446   -1.4544 H   0  0  0  0  0  0  0  0  0  0  0  0
   -3.3554   -1.2419    0.7449 H   0  0  0  0  0  0  0  0  0  0  0  0
   -3.8848   -0.8787   -0.8981 H   0  0  0  0  0  0  0  0  0  0  0  0
   -3.5688    1.0499    1.3013 H   0  0  0  0  0  0  0  0  0  0  0  0
   -4.3170    1.2518   -0.2827 H   0  0  0  0  0  0  0  0  0  0  0  0
   -2.4228    2.5312   -0.8125 H   0  0  0  0  0  0  0  0  0  0  0  0
   -1.5123    1.8619    0.5521 H   0  0  0  0  0  0  0  0  0  0  0  0
  1  2  1  0  0  0  0
  1 13  1  0  0  0  0
  1 14  1  0  0  0  0
  1 15  1  0  0  0  0
  2  3  1  0  0  0  0
  3  4  2  0  0  0  0
  3  5  1  0  0  0  0
  5  6  1  0  0  0  0
  5 16  1  0  0  0  0
  6  7  1  0  0  0  0
  6 17  1  0  0  0  0
  6 18  1  0  0  0  0
  7 19  1  0  0  0  0
  7 20  1  0  0  0  0
  8  7  1  0  0  0  0
  8  9  1  0  0  0  0
  8 12  1  0  0  0  0
  8 21  1  6  0  0  0
  9 10  1  0  0  0  0
  9 22  1  0  0  0  0
  9 23  1  0  0  0  0
 10 11  1  0  0  0  0
 10 24  1  0  0  0  0
 10 25  1  0  0  0  0
 11 12  1  0  0  0  0
 11 26  1  0  0  0  0
 11 27  1  0  0  0  0
M  END
$$$$
