
 OpenBabel03202621372D

 28 28  0  0  1  0  0  0  0  0999 V2000
   -2.5981   -3.5000    0.0000 C   0  0  0  0  0  0  0  0  0  0  0  0
   -1.7321   -3.0000    0.0000 C   0  0  0  0  0  0  0  0  0  0  0  0
   -1.5307   -1.9108    0.9190 C   0  0  1  0  0  0  0  0  0  0  0  0
   -0.1960   -1.4055    0.7957 O   0  0  0  0  0  0  0  0  0  0  0  0
    0.0432   -0.0384    0.8625 C   0  0  0  0  0  0  0  0  0  0  0  0
   -0.5926    0.8091    1.6991 C   0  0  0  0  0  0  0  0  0  0  0  0
   -0.5264    2.2860    1.4629 C   0  0  0  0  0  0  0  0  0  0  0  0
    0.6747    2.7501    0.8447 O   0  0  0  0  0  0  0  0  0  0  0  0
    1.2314    1.8646   -0.0316 C   0  0  0  0  0  0  0  0  0  0  0  0
    0.9706    0.5426   -0.1341 C   0  0  0  0  0  0  0  0  0  0  0  0
    1.4349   -0.2926   -0.9548 O   0  5  0  0  0  0  0  0  0  0  0  0
   -2.5981   -1.5000    0.0000 C   0  0  1  0  0  0  0  0  0  0  0  0
   -2.5981   -0.5000    0.0000 C   0  0  0  0  0  0  0  0  0  0  0  0
   -4.4832   -1.8478    0.8802 Cl  0  0  0  0  0  0  0  0  0  0  0  0
   -2.4155   -4.2171   -0.8438 H   0  0  0  0  0  0  0  0  0  0  0  0
   -2.5093   -4.0903    0.9553 H   0  0  0  0  0  0  0  0  0  0  0  0
   -3.5247   -4.0350    0.0000 H   0  0  0  0  0  0  0  0  0  0  0  0
   -0.8762   -3.6635    0.2993 H   0  0  0  0  0  0  0  0  0  0  0  0
   -1.2219   -2.7791   -0.9843 H   0  0  0  0  0  0  0  0  0  0  0  0
   -1.7849   -2.1126    1.9681 H   0  0  0  0  0  0  0  0  0  0  0  0
   -1.2900    0.4494    2.4396 H   0  0  0  0  0  0  0  0  0  0  0  0
   -1.3703    2.5846    0.8306 H   0  0  0  0  0  0  0  0  0  0  0  0
   -0.6454    2.8242    2.4085 H   0  0  0  0  0  0  0  0  0  0  0  0
    1.9594    2.3533   -0.6646 H   0  0  0  0  0  0  0  0  0  0  0  0
   -2.7952   -1.7762   -1.0885 H   0  0  0  0  0  0  0  0  0  0  0  0
   -2.8976   -0.2276    1.0453 H   0  0  0  0  0  0  0  0  0  0  0  0
   -3.4497   -0.2409   -0.6899 H   0  0  0  0  0  0  0  0  0  0  0  0
   -2.5981    0.5700    0.0000 H   0  0  0  0  0  0  0  0  0  0  0  0
  1  2  1  0  0  0  0
  1 15  1  0  0  0  0
  1 16  1  0  0  0  0
  1 17  1  0  0  0  0
  2 18  1  0  0  0  0
  2 19  1  0  0  0  0
  3  2  1  0  0  0  0
  3  4  1  0  0  0  0
  3 12  1  0  0  0  0
  3 20  1  1  0  0  0
  4  5  1  0  0  0  0
  5 10  1  0  0  0  0
  5  6  2  0  0  0  0
  6  7  1  0  0  0  0
  6 21  1  0  0  0  0
  7  8  1  0  0  0  0
  7 22  1  0  0  0  0
  7 23  1  0  0  0  0
  8  9  1  0  0  0  0
  9 10  2  0  0  0  0
  9 24  1  0  0  0  0
 10 11  1  0  0  0  0
 12 13  1  0  0  0  0
 12 14  1  0  0  0  0
 12 25  1  1  0  0  0
 13 26  1  0  0  0  0
 13 27  1  0  0  0  0
 13 28  1  0  0  0  0
M  CHG  1  11  -1
M  END
$$$$
