
 OpenBabel03202621382D

 26 26  0  0  0  0  0  0  0  0999 V2000
    2.5014   -1.6465    1.6691 O   0  0  0  0  0  0  0  0  0  0  0  0
    3.2001   -1.2492    0.7501 C   0  0  0  0  0  0  0  0  0  0  0  0
    4.2267   -2.0051    0.1779 N   0  0  0  0  0  0  0  0  0  0  0  0
    4.0062   -3.4224    0.0304 C   0  0  0  0  0  0  0  0  0  0  0  0
    5.2764   -4.2492   -0.1357 C   0  0  0  0  0  0  0  0  0  0  0  0
    4.9513   -5.5805   -0.5343 O   0  0  0  0  0  0  0  0  0  0  0  0
    3.0080    0.1109    0.0427 C   0  0  0  0  0  0  0  0  0  0  0  0
    4.0269    0.7086   -0.3064 O   0  0  0  0  0  0  0  0  0  0  0  0
    1.7604    0.4979   -0.2592 O   0  0  0  0  0  0  0  0  0  0  0  0
    0.4969   -0.1779   -0.1957 C   0  0  0  0  0  0  0  0  0  0  0  0
    0.3379   -1.4987   -0.3986 C   0  0  0  0  0  0  0  0  0  0  0  0
   -0.8461   -2.1931   -0.3863 O   0  0  0  0  0  0  0  0  0  0  0  0
   -2.0278   -1.4361   -0.0750 C   0  0  0  0  0  0  0  0  0  0  0  0
   -1.8664    0.0420    0.0485 C   0  0  0  0  0  0  0  0  0  0  0  0
   -0.6822    0.6777   -0.0115 C   0  0  0  0  0  0  0  0  0  0  0  0
   -0.4346    1.9073    0.0730 O   0  5  0  0  0  0  0  0  0  0  0  0
    4.7281   -1.5174   -0.5613 H   0  0  0  0  0  0  0  0  0  0  0  0
    3.3711   -3.5469   -0.8546 H   0  0  0  0  0  0  0  0  0  0  0  0
    3.4237   -3.8067    0.8752 H   0  0  0  0  0  0  0  0  0  0  0  0
    5.9286   -3.8232   -0.9044 H   0  0  0  0  0  0  0  0  0  0  0  0
    5.8421   -4.2938    0.8001 H   0  0  0  0  0  0  0  0  0  0  0  0
    4.2019   -5.8782    0.0120 H   0  0  0  0  0  0  0  0  0  0  0  0
    1.1396   -2.1870   -0.6125 H   0  0  0  0  0  0  0  0  0  0  0  0
   -2.4398   -1.8360    0.8597 H   0  0  0  0  0  0  0  0  0  0  0  0
   -2.7560   -1.6487   -0.8654 H   0  0  0  0  0  0  0  0  0  0  0  0
   -2.7650    0.6318    0.1962 H   0  0  0  0  0  0  0  0  0  0  0  0
  1  2  2  0  0  0  0
  2  3  1  0  0  0  0
  2  7  1  0  0  0  0
  3  4  1  0  0  0  0
  3 17  1  0  0  0  0
  4  5  1  0  0  0  0
  4 18  1  0  0  0  0
  4 19  1  0  0  0  0
  5  6  1  0  0  0  0
  5 20  1  0  0  0  0
  5 21  1  0  0  0  0
  6 22  1  0  0  0  0
  7  8  2  0  0  0  0
  7  9  1  0  0  0  0
  9 10  1  0  0  0  0
 10 15  1  0  0  0  0
 10 11  2  0  0  0  0
 11 12  1  0  0  0  0
 11 23  1  0  0  0  0
 12 13  1  0  0  0  0
 13 14  1  0  0  0  0
 13 24  1  0  0  0  0
 13 25  1  0  0  0  0
 14 15  2  0  0  0  0
 14 26  1  0  0  0  0
 15 16  1  0  0  0  0
M  CHG  1  16  -1
M  END
$$$$
