
 OpenBabel03202621302D

 26 28  0  0  0  0  0  0  0  0999 V2000
    2.0821    0.3945    1.9601 O   0  5  0  0  0  0  0  0  0  0  0  0
    2.7650   -0.0760    1.0128 C   0  0  0  0  0  0  0  0  0  0  0  0
    3.9176    0.3927    0.4848 C   0  0  0  0  0  0  0  0  0  0  0  0
    4.6864   -0.2139   -0.4760 O   0  0  0  0  0  0  0  0  0  0  0  0
    4.4677   -1.6265   -0.5711 C   0  0  0  0  0  0  0  0  0  0  0  0
    3.0577   -2.0577   -0.3446 C   0  0  0  0  0  0  0  0  0  0  0  0
    2.2234   -1.2995    0.3810 C   0  0  0  0  0  0  0  0  0  0  0  0
    0.9536   -1.8085    0.6694 O   0  0  0  0  0  0  0  0  0  0  0  0
   -0.2102   -1.1543    0.3179 C   0  0  0  0  0  0  0  0  0  0  0  0
   -1.3762   -1.9013    0.5377 C   0  0  0  0  0  0  0  0  0  0  0  0
   -2.6532   -1.3586    0.3272 C   0  0  0  0  0  0  0  0  0  0  0  0
   -2.7469   -0.0208   -0.0867 C   0  0  0  0  0  0  0  0  0  0  0  0
   -3.7847    0.9049   -0.3376 C   0  0  0  0  0  0  0  0  0  0  0  0
   -3.3337    2.1097   -0.7028 N   0  0  0  0  0  0  0  0  0  0  0  0
   -1.9921    1.9580   -0.6526 N   0  0  0  0  0  0  0  0  0  0  0  0
   -1.5816    0.6946   -0.3248 C   0  0  0  0  0  0  0  0  0  0  0  0
   -0.2991    0.1513   -0.1729 C   0  0  0  0  0  0  0  0  0  0  0  0
    4.3561    1.3313    0.7971 H   0  0  0  0  0  0  0  0  0  0  0  0
    5.1289   -2.1305    0.1471 H   0  0  0  0  0  0  0  0  0  0  0  0
    4.7879   -1.9326   -1.5723 H   0  0  0  0  0  0  0  0  0  0  0  0
    2.7334   -3.0136   -0.7278 H   0  0  0  0  0  0  0  0  0  0  0  0
   -1.2828   -2.9189    0.9091 H   0  0  0  0  0  0  0  0  0  0  0  0
   -3.5399   -1.9494    0.5278 H   0  0  0  0  0  0  0  0  0  0  0  0
   -4.8515    0.7482   -0.2558 H   0  0  0  0  0  0  0  0  0  0  0  0
   -1.3998    2.7604   -0.8319 H   0  0  0  0  0  0  0  0  0  0  0  0
    0.5849    0.7579   -0.3338 H   0  0  0  0  0  0  0  0  0  0  0  0
  1  2  1  0  0  0  0
  2  7  1  0  0  0  0
  2  3  2  0  0  0  0
  3  4  1  0  0  0  0
  3 18  1  0  0  0  0
  4  5  1  0  0  0  0
  5  6  1  0  0  0  0
  5 19  1  0  0  0  0
  5 20  1  0  0  0  0
  6  7  2  0  0  0  0
  6 21  1  0  0  0  0
  7  8  1  0  0  0  0
  8  9  1  0  0  0  0
  9 17  2  0  0  0  0
  9 10  1  0  0  0  0
 10 11  2  0  0  0  0
 10 22  1  0  0  0  0
 11 12  1  0  0  0  0
 11 23  1  0  0  0  0
 12 16  2  0  0  0  0
 12 13  1  0  0  0  0
 13 14  2  0  0  0  0
 13 24  1  0  0  0  0
 14 15  1  0  0  0  0
 15 16  1  0  0  0  0
 15 25  1  0  0  0  0
 16 17  1  0  0  0  0
 17 26  1  0  0  0  0
M  CHG  1   1  -1
M  END
$$$$
