
 OpenBabel03202621372D

 28 28  0  0  1  0  0  0  0  0999 V2000
    3.4641   -2.0000    0.0000 C   0  0  0  0  0  0  0  0  0  0  0  0
    2.5981   -1.5000    0.0000 C   0  0  1  0  0  0  0  0  0  0  0  0
    2.5973    0.0731    0.0563 C   0  0  0  0  0  0  0  0  0  0  0  0
    1.3521    0.6933    0.4150 O   0  0  0  0  0  0  0  0  0  0  0  0
    0.1750    0.4541   -0.2521 C   0  0  0  0  0  0  0  0  0  0  0  0
    0.0131   -0.0994   -1.4650 C   0  0  0  0  0  0  0  0  0  0  0  0
   -1.1752   -0.4961   -2.0337 O   0  0  0  0  0  0  0  0  0  0  0  0
   -2.2046   -0.7134   -1.0603 C   0  0  0  0  0  0  0  0  0  0  0  0
   -2.4011    0.5202   -0.2119 C   0  0  0  0  0  0  0  0  0  0  0  0
   -1.0916    0.8296    0.4649 C   0  0  0  0  0  0  0  0  0  0  0  0
   -1.0588    1.4207    1.5449 O   0  0  0  0  0  0  0  0  0  0  0  0
    1.7223   -2.0227    1.2215 C   0  0  0  0  0  0  0  0  0  0  0  0
    0.9568   -3.2992    0.8738 C   0  0  0  0  0  0  0  0  0  0  0  0
   -0.0522   -3.2650    0.1777 O   0  0  0  0  0  0  0  0  0  0  0  0
    1.7014   -4.7359    1.5130 Cl  0  0  0  0  0  0  0  0  0  0  0  0
    3.1490   -2.9866   -0.4286 H   0  0  0  0  0  0  0  0  0  0  0  0
    3.9962   -1.4757   -0.8324 H   0  0  0  0  0  0  0  0  0  0  0  0
    4.3907   -2.5350    0.0000 H   0  0  0  0  0  0  0  0  0  0  0  0
    1.9503   -1.6756   -0.8765 H   0  0  0  0  0  0  0  0  0  0  0  0
    3.3150    0.4046    0.8182 H   0  0  0  0  0  0  0  0  0  0  0  0
    2.9318    0.5017   -0.8974 H   0  0  0  0  0  0  0  0  0  0  0  0
    0.8204   -0.3244   -2.1477 H   0  0  0  0  0  0  0  0  0  0  0  0
   -1.9485   -1.5863   -0.4460 H   0  0  0  0  0  0  0  0  0  0  0  0
   -3.1276   -0.9597   -1.5953 H   0  0  0  0  0  0  0  0  0  0  0  0
   -2.6860    1.3831   -0.8234 H   0  0  0  0  0  0  0  0  0  0  0  0
   -3.1681    0.3380    0.5469 H   0  0  0  0  0  0  0  0  0  0  0  0
    0.9518   -1.3170    1.5421 H   0  0  0  0  0  0  0  0  0  0  0  0
    2.3385   -2.1822    2.1176 H   0  0  0  0  0  0  0  0  0  0  0  0
  1 16  1  0  0  0  0
  1 17  1  0  0  0  0
  1 18  1  0  0  0  0
  2  1  1  0  0  0  0
  2  3  1  0  0  0  0
  2 12  1  0  0  0  0
  2 19  1  1  0  0  0
  3  4  1  0  0  0  0
  3 20  1  0  0  0  0
  3 21  1  0  0  0  0
  4  5  1  0  0  0  0
  5 10  1  0  0  0  0
  5  6  2  0  0  0  0
  6  7  1  0  0  0  0
  6 22  1  0  0  0  0
  7  8  1  0  0  0  0
  8  9  1  0  0  0  0
  8 23  1  0  0  0  0
  8 24  1  0  0  0  0
  9 10  1  0  0  0  0
  9 25  1  0  0  0  0
  9 26  1  0  0  0  0
 10 11  2  0  0  0  0
 12 13  1  0  0  0  0
 12 27  1  0  0  0  0
 12 28  1  0  0  0  0
 13 14  2  0  0  0  0
 13 15  1  0  0  0  0
M  END
$$$$
