
 OpenBabel03202621302D

 31 32  0  0  0  0  0  0  0  0999 V2000
    3.4641    3.0000    0.0000 C   0  0  0  0  0  0  0  0  0  0  0  0
    2.5981    2.5000    0.0000 S   0  0  0  0  0  0  0  0  0  0  0  0
    2.6438    0.9494   -0.7661 C   0  0  0  0  0  0  0  0  0  0  0  0
    1.7294    0.5736   -1.4837 O   0  0  0  0  0  0  0  0  0  0  0  0
    3.7768    0.2318   -0.4604 N   0  0  0  0  0  0  0  0  0  0  0  0
    3.8220   -1.1605   -0.2308 C   0  0  0  0  0  0  0  0  0  0  0  0
    5.0778   -1.7673   -0.3368 C   0  0  0  0  0  0  0  0  0  0  0  0
    5.2441   -3.1071    0.0133 C   0  0  0  0  0  0  0  0  0  0  0  0
    4.1649   -3.8289    0.5152 C   0  0  0  0  0  0  0  0  0  0  0  0
    4.3923   -5.4579    1.0157 Cl  0  0  0  0  0  0  0  0  0  0  0  0
    2.9159   -3.2274    0.6611 C   0  0  0  0  0  0  0  0  0  0  0  0
    2.7207   -1.9071    0.2447 C   0  0  0  0  0  0  0  0  0  0  0  0
    1.5685   -1.2324    0.5793 O   0  0  0  0  0  0  0  0  0  0  0  0
    0.3161   -1.6626    0.2006 C   0  0  0  0  0  0  0  0  0  0  0  0
   -0.0161   -2.8574   -0.4361 C   0  0  0  0  0  0  0  0  0  0  0  0
   -1.3593   -3.1669   -0.6866 C   0  0  0  0  0  0  0  0  0  0  0  0
   -2.3689   -2.2663   -0.3486 C   0  0  0  0  0  0  0  0  0  0  0  0
   -2.0393   -1.0464    0.2335 C   0  0  0  0  0  0  0  0  0  0  0  0
   -0.7047   -0.7518    0.5108 C   0  0  0  0  0  0  0  0  0  0  0  0
    3.8297    2.7242    1.0094 H   0  0  0  0  0  0  0  0  0  0  0  0
    3.0665    4.0311    0.0574 H   0  0  0  0  0  0  0  0  0  0  0  0
    4.3907    3.5350    0.0000 H   0  0  0  0  0  0  0  0  0  0  0  0
    4.6226    0.7538   -0.2938 H   0  0  0  0  0  0  0  0  0  0  0  0
    5.9368   -1.2066   -0.6930 H   0  0  0  0  0  0  0  0  0  0  0  0
    6.2246   -3.5722   -0.0813 H   0  0  0  0  0  0  0  0  0  0  0  0
    2.1114   -3.7763    1.1414 H   0  0  0  0  0  0  0  0  0  0  0  0
    0.7340   -3.5710   -0.7498 H   0  0  0  0  0  0  0  0  0  0  0  0
   -1.6168   -4.1136   -1.1545 H   0  0  0  0  0  0  0  0  0  0  0  0
   -3.4084   -2.5086   -0.5510 H   0  0  0  0  0  0  0  0  0  0  0  0
   -2.8145   -0.3232    0.4703 H   0  0  0  0  0  0  0  0  0  0  0  0
   -0.4495    0.2074    0.9551 H   0  0  0  0  0  0  0  0  0  0  0  0
  1  2  1  0  0  0  0
  1 20  1  0  0  0  0
  1 21  1  0  0  0  0
  1 22  1  0  0  0  0
  2  3  1  0  0  0  0
  3  4  2  0  0  0  0
  3  5  1  0  0  0  0
  5  6  1  0  0  0  0
  5 23  1  0  0  0  0
  6 12  2  0  0  0  0
  6  7  1  0  0  0  0
  7  8  2  0  0  0  0
  7 24  1  0  0  0  0
  8  9  1  0  0  0  0
  8 25  1  0  0  0  0
  9 10  1  0  0  0  0
  9 11  2  0  0  0  0
 11 12  1  0  0  0  0
 11 26  1  0  0  0  0
 12 13  1  0  0  0  0
 13 14  1  0  0  0  0
 14 19  2  0  0  0  0
 14 15  1  0  0  0  0
 15 16  2  0  0  0  0
 15 27  1  0  0  0  0
 16 17  1  0  0  0  0
 16 28  1  0  0  0  0
 17 18  2  0  0  0  0
 17 29  1  0  0  0  0
 18 19  1  0  0  0  0
 18 30  1  0  0  0  0
 19 31  1  0  0  0  0
M  END
$$$$
