
 OpenBabel03202621342D

 18 18  0  0  0  0  0  0  0  0999 V2000
   -0.8660    2.5000    0.0000 C   0  0  0  0  0  0  0  0  0  0  0  0
   -0.8660    1.5000    0.0000 S   0  0  0  0  0  0  0  0  0  0  0  0
    0.7296    0.6962    0.0000 C   0  0  0  0  0  0  0  0  0  0  0  0
    1.9814    1.3325    0.0000 C   0  0  0  0  0  0  0  0  0  0  0  0
    3.1444    0.5718   -0.0000 C   0  0  0  0  0  0  0  0  0  0  0  0
    3.0644   -0.8177   -0.0000 C   0  0  0  0  0  0  0  0  0  0  0  0
    1.8234   -1.4620   -0.0000 C   0  0  0  0  0  0  0  0  0  0  0  0
    0.6350   -0.7235   -0.0000 C   0  0  0  0  0  0  0  0  0  0  0  0
   -0.6654   -1.2843    0.0000 N   0  0  0  0  0  0  0  0  0  0  0  0
   -0.7959   -2.4419    0.0000 C   0  0  0  0  0  0  0  0  0  0  0  0
   -0.9619   -3.6060   -0.0000 O   0  0  0  0  0  0  0  0  0  0  0  0
    0.1385    2.9167   -0.0000 H   0  0  0  0  0  0  0  0  0  0  0  0
   -1.9172    2.8045   -0.0000 H   0  0  0  0  0  0  0  0  0  0  0  0
   -0.8660    3.5700    0.0000 H   0  0  0  0  0  0  0  0  0  0  0  0
    2.0802    2.4144    0.0000 H   0  0  0  0  0  0  0  0  0  0  0  0
    4.1127    1.0659   -0.0000 H   0  0  0  0  0  0  0  0  0  0  0  0
    3.9751   -1.4101   -0.0000 H   0  0  0  0  0  0  0  0  0  0  0  0
    1.8019   -2.5477    0.0000 H   0  0  0  0  0  0  0  0  0  0  0  0
  1  2  1  0  0  0  0
  1 12  1  0  0  0  0
  1 13  1  0  0  0  0
  1 14  1  0  0  0  0
  2  3  1  0  0  0  0
  3  8  2  0  0  0  0
  3  4  1  0  0  0  0
  4  5  2  0  0  0  0
  4 15  1  0  0  0  0
  5  6  1  0  0  0  0
  5 16  1  0  0  0  0
  6  7  2  0  0  0  0
  6 17  1  0  0  0  0
  7  8  1  0  0  0  0
  7 18  1  0  0  0  0
  8  9  1  0  0  0  0
  9 10  2  0  0  0  0
 10 11  2  0  0  0  0
M  END
$$$$
