
 OpenBabel03202621342D

 26 26  0  0  0  0  0  0  0  0999 V2000
   -1.1793   -2.3961    0.1474 N   0  0  0  0  0  0  0  0  0  0  0  0
   -1.3799   -1.0329    0.1168 C   0  0  0  0  0  0  0  0  0  0  0  0
   -2.6361   -0.5961    0.0583 N   0  0  0  0  0  0  0  0  0  0  0  0
   -2.7981    0.7367    0.0648 C   0  0  0  0  0  0  0  0  0  0  0  0
   -1.7538    1.6283    0.1229 C   0  0  0  0  0  0  0  0  0  0  0  0
   -0.4937    1.0815    0.1484 C   0  0  0  0  0  0  0  0  0  0  0  0
    0.6713    1.8156    0.2770 N   0  0  0  0  0  0  0  0  0  0  0  0
    0.7806    3.1828   -0.1949 C   0  0  0  0  0  0  0  0  0  0  0  0
    2.1832    3.7764    0.0201 C   0  0  0  0  0  0  0  0  0  0  0  0
    3.3212    2.7608    0.0405 C   0  0  0  0  0  0  0  0  0  0  0  0
    4.9292    3.5888    0.1840 S   0  0  0  0  0  0  0  0  0  0  0  0
    5.9446    2.1584    0.2132 C   0  0  0  0  0  0  0  0  0  0  0  0
    7.1691    2.2408    0.2296 O   0  0  0  0  0  0  0  0  0  0  0  0
   -0.3027   -0.2472    0.1247 N   0  0  0  0  0  0  0  0  0  0  0  0
   -1.9803   -2.8730   -0.2416 H   0  0  0  0  0  0  0  0  0  0  0  0
   -0.2678   -2.6259   -0.2186 H   0  0  0  0  0  0  0  0  0  0  0  0
   -3.8283    1.0795    0.0326 H   0  0  0  0  0  0  0  0  0  0  0  0
   -1.9367    2.6923    0.1483 H   0  0  0  0  0  0  0  0  0  0  0  0
    1.4159    1.1662    0.0397 H   0  0  0  0  0  0  0  0  0  0  0  0
    0.5179    3.2416   -1.2570 H   0  0  0  0  0  0  0  0  0  0  0  0
    0.0733    3.8202    0.3513 H   0  0  0  0  0  0  0  0  0  0  0  0
    2.1850    4.3350    0.9651 H   0  0  0  0  0  0  0  0  0  0  0  0
    2.3538    4.5185   -0.7717 H   0  0  0  0  0  0  0  0  0  0  0  0
    3.2159    2.0922    0.9021 H   0  0  0  0  0  0  0  0  0  0  0  0
    3.3174    2.1597   -0.8744 H   0  0  0  0  0  0  0  0  0  0  0  0
    5.4459    1.1784    0.2139 H   0  0  0  0  0  0  0  0  0  0  0  0
  1  2  1  0  0  0  0
  1 15  1  0  0  0  0
  1 16  1  0  0  0  0
  2 14  2  0  0  0  0
  2  3  1  0  0  0  0
  3  4  2  0  0  0  0
  4  5  1  0  0  0  0
  4 17  1  0  0  0  0
  5  6  2  0  0  0  0
  5 18  1  0  0  0  0
  6  7  1  0  0  0  0
  6 14  1  0  0  0  0
  7  8  1  0  0  0  0
  7 19  1  0  0  0  0
  8  9  1  0  0  0  0
  8 20  1  0  0  0  0
  8 21  1  0  0  0  0
  9 10  1  0  0  0  0
  9 22  1  0  0  0  0
  9 23  1  0  0  0  0
 10 11  1  0  0  0  0
 10 24  1  0  0  0  0
 10 25  1  0  0  0  0
 11 12  1  0  0  0  0
 12 13  2  0  0  0  0
 12 26  1  0  0  0  0
M  END
$$$$
