
 OpenBabel03202621332D

 15 15  0  0  1  0  0  0  0  0999 V2000
   -2.6044   -1.1865   -0.6813 O   0  0  0  0  0  0  0  0  0  0  0  0
   -2.0898   -1.8935    0.1677 C   0  0  0  0  0  0  0  0  0  0  0  0
   -0.7692   -1.9551    0.4700 O   0  0  0  0  0  0  0  0  0  0  0  0
    0.0709   -1.0728   -0.3033 C   0  0  3  0  0  0  0  0  0  0  0  0
    0.0555    0.4227    0.0870 C   0  0  0  0  0  0  0  0  0  0  0  0
    1.5858    0.4405   -0.0875 C   0  0  3  0  0  0  0  0  0  0  0  0
    2.2787    1.1316    0.8442 F   0  0  0  0  0  0  0  0  0  0  0  0
    1.5638   -1.0893    0.0905 C   0  0  0  0  0  0  0  0  0  0  0  0
   -2.6402   -2.5922    0.8162 H   0  0  0  0  0  0  0  0  0  0  0  0
   -0.0579   -1.2390   -1.3823 H   0  0  0  0  0  0  0  0  0  0  0  0
   -0.4931    1.0779   -0.5961 H   0  0  0  0  0  0  0  0  0  0  0  0
   -0.2775    0.6199    1.1117 H   0  0  0  0  0  0  0  0  0  0  0  0
    1.8834    0.7339   -1.1021 H   0  0  0  0  0  0  0  0  0  0  0  0
    1.7556   -1.4205    1.1175 H   0  0  0  0  0  0  0  0  0  0  0  0
    2.2182   -1.6435   -0.5877 H   0  0  0  0  0  0  0  0  0  0  0  0
  1  2  2  0  0  0  0
  2  3  1  0  0  0  0
  2  9  1  0  0  0  0
  3  4  1  0  0  0  0
  4  8  1  0  0  0  0
  4  5  1  0  0  0  0
  4 10  1  0  0  0  0
  5  6  1  0  0  0  0
  5 11  1  0  0  0  0
  5 12  1  0  0  0  0
  6  7  1  0  0  0  0
  6  8  1  0  0  0  0
  6 13  1  0  0  0  0
  8 14  1  0  0  0  0
  8 15  1  0  0  0  0
M  END
$$$$
