
 OpenBabel03202621312D

 15 14  0  0  0  0  0  0  0  0999 V2000
    3.4641    0.0000    0.0000 C   0  0  0  0  0  0  0  0  0  0  0  0
    3.4641    1.0000    0.0000 C   0  0  0  0  0  0  0  0  0  0  0  0
    2.2385    1.9177   -0.0000 O   0  0  0  0  0  0  0  0  0  0  0  0
    0.9135    1.6469    0.0000 C   0  0  0  0  0  0  0  0  0  0  0  0
   -0.1458    2.8510   -0.0000 S   0  0  0  0  0  0  0  0  0  0  0  0
    0.8028    0.3435    0.0000 N   0  0  0  0  0  0  0  0  0  0  0  0
    0.0800   -0.7807    0.0000 C   0  0  0  0  0  0  0  0  0  0  0  0
   -1.1580   -0.7104    0.0000 O   0  0  0  0  0  0  0  0  0  0  0  0
    2.6301   -0.7063    0.0000 H   0  0  0  0  0  0  0  0  0  0  0  0
    4.5269   -0.3537   -0.0000 H   0  0  0  0  0  0  0  0  0  0  0  0
    3.4641   -1.0700    0.0000 H   0  0  0  0  0  0  0  0  0  0  0  0
    4.5694    1.2457   -0.0000 H   0  0  0  0  0  0  0  0  0  0  0  0
    3.8700    2.0291    0.0000 H   0  0  0  0  0  0  0  0  0  0  0  0
    1.7336    0.2670   -0.0000 H   0  0  0  0  0  0  0  0  0  0  0  0
    0.6542   -1.7356   -0.0000 H   0  0  0  0  0  0  0  0  0  0  0  0
  1  2  1  0  0  0  0
  1  9  1  0  0  0  0
  1 10  1  0  0  0  0
  1 11  1  0  0  0  0
  2  3  1  0  0  0  0
  2 12  1  0  0  0  0
  2 13  1  0  0  0  0
  3  4  1  0  0  0  0
  4  5  2  0  0  0  0
  4  6  1  0  0  0  0
  6  7  1  0  0  0  0
  6 14  1  0  0  0  0
  7  8  2  0  0  0  0
  7 15  1  0  0  0  0
M  END
$$$$
