
 OpenBabel03202621392D

 30 32  0  0  0  0  0  0  0  0999 V2000
   -0.0933   -1.7796    0.0000 C   0  0  0  0  0  0  0  0  0  0  0  0
   -0.5000   -0.8660    0.0000 C   0  0  0  0  0  0  0  0  0  0  0  0
   -1.6252   -0.3498   -0.6139 C   0  0  0  0  0  0  0  0  0  0  0  0
   -1.8557    0.8820   -0.0197 N   0  0  0  0  0  0  0  0  0  0  0  0
   -3.0654    1.5572    0.1983 C   0  0  0  0  0  0  0  0  0  0  0  0
   -3.0540    2.7726    0.4127 O   0  0  0  0  0  0  0  0  0  0  0  0
   -4.3705    0.8496    0.2009 C   0  0  0  0  0  0  0  0  0  0  0  0
   -4.4135   -0.5148    0.5178 C   0  0  0  0  0  0  0  0  0  0  0  0
   -5.5774   -1.2564    0.3367 C   0  0  0  0  0  0  0  0  0  0  0  0
   -5.5556   -2.6495    0.4930 C   0  0  0  0  0  0  0  0  0  0  0  0
   -6.7056   -3.3972    0.2628 C   0  0  0  0  0  0  0  0  0  0  0  0
   -7.8891   -2.7536   -0.0903 C   0  0  0  0  0  0  0  0  0  0  0  0
   -7.9228   -1.3630   -0.2318 C   0  0  0  0  0  0  0  0  0  0  0  0
   -6.7648   -0.5948   -0.0420 C   0  0  0  0  0  0  0  0  0  0  0  0
   -6.7444    0.8026   -0.2258 C   0  0  0  0  0  0  0  0  0  0  0  0
   -5.5516    1.5169   -0.1147 C   0  0  0  0  0  0  0  0  0  0  0  0
   -5.6075    2.8641   -0.3378 O   0  0  0  0  0  0  0  0  0  0  0  0
   -0.7340    1.2803    0.5994 N   0  0  0  0  0  0  0  0  0  0  0  0
    0.0414    0.2142    0.7096 N   0  0  0  0  0  0  0  0  0  0  0  0
   -0.4318   -2.1234    1.0059 H   0  0  0  0  0  0  0  0  0  0  0  0
    0.9960   -1.5351    0.0125 H   0  0  0  0  0  0  0  0  0  0  0  0
    0.3419   -2.7571    0.0000 H   0  0  0  0  0  0  0  0  0  0  0  0
   -2.3475   -0.7925   -1.2859 H   0  0  0  0  0  0  0  0  0  0  0  0
   -3.5325   -1.0328    0.8889 H   0  0  0  0  0  0  0  0  0  0  0  0
   -4.6374   -3.1658    0.7627 H   0  0  0  0  0  0  0  0  0  0  0  0
   -6.6750   -4.4795    0.3562 H   0  0  0  0  0  0  0  0  0  0  0  0
   -8.7880   -3.3379   -0.2633 H   0  0  0  0  0  0  0  0  0  0  0  0
   -8.8575   -0.8850   -0.5112 H   0  0  0  0  0  0  0  0  0  0  0  0
   -7.6554    1.3365   -0.4846 H   0  0  0  0  0  0  0  0  0  0  0  0
   -4.7551    3.2664   -0.0569 H   0  0  0  0  0  0  0  0  0  0  0  0
  1  2  1  0  0  0  0
  1 20  1  0  0  0  0
  1 21  1  0  0  0  0
  1 22  1  0  0  0  0
  2 19  1  0  0  0  0
  2  3  2  0  0  0  0
  3  4  1  0  0  0  0
  3 23  1  0  0  0  0
  4  5  1  0  0  0  0
  4 18  1  0  0  0  0
  5  6  2  0  0  0  0
  5  7  1  0  0  0  0
  7 16  2  0  0  0  0
  7  8  1  0  0  0  0
  8  9  2  0  0  0  0
  8 24  1  0  0  0  0
  9 14  1  0  0  0  0
  9 10  1  0  0  0  0
 10 11  2  0  0  0  0
 10 25  1  0  0  0  0
 11 12  1  0  0  0  0
 11 26  1  0  0  0  0
 12 13  2  0  0  0  0
 12 27  1  0  0  0  0
 13 14  1  0  0  0  0
 13 28  1  0  0  0  0
 14 15  2  0  0  0  0
 15 16  1  0  0  0  0
 15 29  1  0  0  0  0
 16 17  1  0  0  0  0
 17 30  1  0  0  0  0
 18 19  2  0  0  0  0
M  END
$$$$
