
 OpenBabel03202621282D

 14 15  0  0  0  0  0  0  0  0999 V2000
    3.7921    1.7953    0.0000 O   0  0  0  0  0  0  0  0  0  0  0  0
    2.8139    2.0032    0.0000 C   0  0  0  0  0  0  0  0  0  0  0  0
    2.1448    1.2601    0.0000 S   0  0  0  0  0  0  0  0  0  0  0  0
    2.4538    0.3090    0.0000 C   0  0  0  0  0  0  0  0  0  0  0  0
    3.4049    0.0000    0.0000 N   0  0  0  0  0  0  0  0  0  0  0  0
    3.4049   -1.0000    0.0000 C   0  0  0  0  0  0  0  0  0  0  0  0
    2.4538   -1.3090    0.0000 C   0  0  0  0  0  0  0  0  0  0  0  0
    2.1448   -2.2601    0.0000 C   0  0  0  0  0  0  0  0  0  0  0  0
    1.1666   -2.4680    0.0000 O   0  0  0  0  0  0  0  0  0  0  0  0
    2.8139   -3.0032    0.0000 O   0  0  0  0  0  0  0  0  0  0  0  0
    1.8660   -0.5000    0.0000 N   0  0  0  0  0  0  0  0  0  0  0  0
    0.8660   -0.5000    0.0000 C   0  0  0  0  0  0  0  0  0  0  0  0
   -0.0000   -1.0000    0.0000 C   0  0  0  0  0  0  0  0  0  0  0  0
    0.0000    0.0000    0.0000 C   0  0  0  0  0  0  0  0  0  0  0  0
  1  2  2  0  0  0  0
  2  3  1  0  0  0  0
  3  4  1  0  0  0  0
  4 11  1  0  0  0  0
  4  5  2  0  0  0  0
  5  6  1  0  0  0  0
  6  7  2  0  0  0  0
  7  8  1  0  0  0  0
  7 11  1  0  0  0  0
  8  9  2  0  0  0  0
  8 10  1  0  0  0  0
 11 12  1  0  0  0  0
 12 14  1  0  0  0  0
 12 13  1  0  0  0  0
 13 14  1  0  0  0  0
M  END
$$$$
