
 OpenBabel03202621352D

 18 18  0  0  0  0  0  0  0  0999 V2000
    2.5981   -0.5000    0.0000 C   0  0  0  0  0  0  0  0  0  0  0  0
    1.7321    0.0000    0.0000 O   0  0  0  0  0  0  0  0  0  0  0  0
    0.5523   -0.7378   -0.0000 C   0  0  0  0  0  0  0  0  0  0  0  0
    0.4042   -2.1483   -0.0000 C   0  0  0  0  0  0  0  0  0  0  0  0
   -0.7767   -2.8023   -0.0000 N   0  0  0  0  0  0  0  0  0  0  0  0
   -1.8802   -2.0295   -0.0000 C   0  0  0  0  0  0  0  0  0  0  0  0
   -1.8428   -0.6374   -0.0000 C   0  0  0  0  0  0  0  0  0  0  0  0
   -2.9526    0.2172   -0.0000 O   0  0  0  0  0  0  0  0  0  0  0  0
   -4.2573   -0.2368    0.0000 C   0  0  0  0  0  0  0  0  0  0  0  0
   -4.6641   -1.3880   -0.0000 O   0  0  0  0  0  0  0  0  0  0  0  0
   -0.6104    0.0136   -0.0000 C   0  0  0  0  0  0  0  0  0  0  0  0
    2.5251   -1.5848    0.0000 H   0  0  0  0  0  0  0  0  0  0  0  0
    3.3752    0.2731    0.0000 H   0  0  0  0  0  0  0  0  0  0  0  0
    3.5247   -1.0350    0.0000 H   0  0  0  0  0  0  0  0  0  0  0  0
    1.2284   -2.8542   -0.0000 H   0  0  0  0  0  0  0  0  0  0  0  0
   -2.7949   -2.6072   -0.0000 H   0  0  0  0  0  0  0  0  0  0  0  0
   -4.9105    0.6486    0.0000 H   0  0  0  0  0  0  0  0  0  0  0  0
   -0.5534    1.0968    0.0000 H   0  0  0  0  0  0  0  0  0  0  0  0
  1  2  1  0  0  0  0
  1 12  1  0  0  0  0
  1 13  1  0  0  0  0
  1 14  1  0  0  0  0
  2  3  1  0  0  0  0
  3 11  2  0  0  0  0
  3  4  1  0  0  0  0
  4  5  2  0  0  0  0
  4 15  1  0  0  0  0
  5  6  1  0  0  0  0
  6  7  2  0  0  0  0
  6 16  1  0  0  0  0
  7  8  1  0  0  0  0
  7 11  1  0  0  0  0
  8  9  1  0  0  0  0
  9 10  2  0  0  0  0
  9 17  1  0  0  0  0
 11 18  1  0  0  0  0
M  END
$$$$
