
 OpenBabel03202621372D

 39 40  0  0  1  0  0  0  0  0999 V2000
   -1.1340    3.2321    0.0000 C   0  0  0  0  0  0  0  0  0  0  0  0
   -0.6340    2.3660    0.0000 O   0  0  0  0  0  0  0  0  0  0  0  0
    0.3660    2.3660    0.0000 C   0  0  0  0  0  0  0  0  0  0  0  0
    1.0556    3.4009    0.1952 O   0  0  0  0  0  0  0  0  0  0  0  0
    0.8660    1.5000    0.0000 C   0  0  1  0  0  0  0  0  0  0  0  0
    1.2518    1.8546   -1.7119 C   0  0  0  0  0  0  0  0  0  0  0  0
    1.3660    0.6340    0.0000 N   0  0  0  0  0  0  0  0  0  0  0  0
    2.4839    0.4218    0.8142 C   0  0  0  0  0  0  0  0  0  0  0  0
    2.7876    1.0178    2.3507 S   0  0  0  0  0  0  0  0  0  0  0  0
    3.2008   -0.6225    0.2874 O   0  0  0  0  0  0  0  0  0  0  0  0
    4.6279   -0.6755    0.2026 C   0  0  0  0  0  0  0  0  0  0  0  0
    5.2437   -1.8317    0.4641 C   0  0  0  0  0  0  0  0  0  0  0  0
    6.7254   -1.9529    0.3179 C   0  0  0  0  0  0  0  0  0  0  0  0
    7.4491   -0.7159    0.3515 O   0  0  0  0  0  0  0  0  0  0  0  0
    6.7536    0.3573   -0.1485 C   0  0  0  0  0  0  0  0  0  0  0  0
    5.4238    0.4503   -0.3156 C   0  0  0  0  0  0  0  0  0  0  0  0
    4.7406    1.3593   -0.8600 O   0  5  0  0  0  0  0  0  0  0  0  0
   -0.5150    0.2173   -0.1995 C   0  0  0  0  0  0  0  0  0  0  0  0
   -1.5313    0.3062   -1.1919 C   0  0  0  0  0  0  0  0  0  0  0  0
   -2.5489   -0.6533   -1.2548 C   0  0  0  0  0  0  0  0  0  0  0  0
   -2.5045   -1.7877   -0.4454 C   0  0  0  0  0  0  0  0  0  0  0  0
   -1.4638   -1.9554    0.4632 C   0  0  0  0  0  0  0  0  0  0  0  0
   -0.5070   -0.9506    0.6276 C   0  0  0  0  0  0  0  0  0  0  0  0
   -1.6036    3.2084   -1.0121 H   0  0  0  0  0  0  0  0  0  0  0  0
   -1.9352    2.9872    0.7339 H   0  0  0  0  0  0  0  0  0  0  0  0
   -1.6690    4.1588    0.0000 H   0  0  0  0  0  0  0  0  0  0  0  0
    2.2581    2.2957   -1.7604 H   0  0  0  0  0  0  0  0  0  0  0  0
    0.5592    2.5603   -2.2037 H   0  0  0  0  0  0  0  0  0  0  0  0
    1.2452    0.9545   -2.3472 H   0  0  0  0  0  0  0  0  0  0  0  0
    1.5386    0.0008   -0.7837 H   0  0  0  0  0  0  0  0  0  0  0  0
    4.6707   -2.7028    0.7496 H   0  0  0  0  0  0  0  0  0  0  0  0
    7.1202   -2.5723    1.1337 H   0  0  0  0  0  0  0  0  0  0  0  0
    6.9638   -2.4644   -0.6194 H   0  0  0  0  0  0  0  0  0  0  0  0
    7.4302    1.1614   -0.4104 H   0  0  0  0  0  0  0  0  0  0  0  0
   -1.5808    1.1428   -1.8809 H   0  0  0  0  0  0  0  0  0  0  0  0
   -3.3772   -0.5173   -1.9454 H   0  0  0  0  0  0  0  0  0  0  0  0
   -3.2756   -2.5484   -0.5317 H   0  0  0  0  0  0  0  0  0  0  0  0
   -1.3902   -2.8695    1.0465 H   0  0  0  0  0  0  0  0  0  0  0  0
    0.2857   -1.1168    1.3536 H   0  0  0  0  0  0  0  0  0  0  0  0
  1  2  1  0  0  0  0
  1 24  1  0  0  0  0
  1 25  1  0  0  0  0
  1 26  1  0  0  0  0
  2  3  1  0  0  0  0
  3  4  2  0  0  0  0
  5  3  1  1  0  0  0
  5  6  1  0  0  0  0
  5  7  1  0  0  0  0
  5 18  1  0  0  0  0
  6 27  1  0  0  0  0
  6 28  1  0  0  0  0
  6 29  1  0  0  0  0
  7  8  1  0  0  0  0
  7 30  1  0  0  0  0
  8  9  2  0  0  0  0
  8 10  1  0  0  0  0
 10 11  1  0  0  0  0
 11 16  1  0  0  0  0
 11 12  2  0  0  0  0
 12 13  1  0  0  0  0
 12 31  1  0  0  0  0
 13 14  1  0  0  0  0
 13 32  1  0  0  0  0
 13 33  1  0  0  0  0
 14 15  1  0  0  0  0
 15 16  2  0  0  0  0
 15 34  1  0  0  0  0
 16 17  1  0  0  0  0
 18 23  2  0  0  0  0
 18 19  1  0  0  0  0
 19 20  2  0  0  0  0
 19 35  1  0  0  0  0
 20 21  1  0  0  0  0
 20 36  1  0  0  0  0
 21 22  2  0  0  0  0
 21 37  1  0  0  0  0
 22 23  1  0  0  0  0
 22 38  1  0  0  0  0
 23 39  1  0  0  0  0
M  CHG  1  17  -1
M  END
$$$$
