
 OpenBabel03202621352D

 18 18  0  0  1  0  0  0  0  0999 V2000
    1.7071   -0.7071    0.0000 C   0  0  0  0  0  0  0  0  0  0  0  0
    1.0000    0.0000    0.0000 C   0  0  1  0  0  0  0  0  0  0  0  0
   -0.4988    0.0309    0.4332 C   0  0  0  0  0  0  0  0  0  0  0  0
   -0.5952    1.4478   -0.1491 C   0  0  2  0  0  0  0  0  0  0  0  0
   -1.3231    2.4620    0.6239 O   0  0  0  0  0  0  0  0  0  0  0  0
   -2.6719    2.4361    0.4163 C   0  0  0  0  0  0  0  0  0  0  0  0
   -3.3856    3.4132    0.7343 O   0  0  0  0  0  0  0  0  0  0  0  0
    0.9351    1.5882   -0.0372 C   0  0  0  0  0  0  0  0  0  0  0  0
    1.3219   -1.4032    0.7810 H   0  0  0  0  0  0  0  0  0  0  0  0
    2.5645   -0.1627    0.4570 H   0  0  0  0  0  0  0  0  0  0  0  0
    2.4637   -1.4637    0.0000 H   0  0  0  0  0  0  0  0  0  0  0  0
    0.8139   -0.1456   -1.1002 H   0  0  0  0  0  0  0  0  0  0  0  0
   -0.6864   -0.0588    1.5240 H   0  0  0  0  0  0  0  0  0  0  0  0
   -1.1269   -0.6956   -0.1019 H   0  0  0  0  0  0  0  0  0  0  0  0
   -0.9297    1.4685   -1.1888 H   0  0  0  0  0  0  0  0  0  0  0  0
   -3.0274    1.5674   -0.0622 H   0  0  0  0  0  0  0  0  0  0  0  0
    1.5404    1.6859    0.8677 H   0  0  0  0  0  0  0  0  0  0  0  0
    1.1192    2.6615   -0.0269 H   0  0  0  0  0  0  0  0  0  0  0  0
  1  9  1  0  0  0  0
  1 10  1  0  0  0  0
  1 11  1  0  0  0  0
  2  1  1  0  0  0  0
  2  3  1  0  0  0  0
  2  8  1  0  0  0  0
  2 12  1  6  0  0  0
  3  4  1  0  0  0  0
  3 13  1  0  0  0  0
  3 14  1  0  0  0  0
  4  5  1  0  0  0  0
  4  8  1  0  0  0  0
  4 15  1  1  0  0  0
  5  6  1  0  0  0  0
  6  7  2  0  0  0  0
  6 16  1  0  0  0  0
  8 17  1  0  0  0  0
  8 18  1  0  0  0  0
M  END
$$$$
