
 OpenBabel03202621312D

 33 34  0  0  1  0  0  0  0  0999 V2000
    3.4641    1.0000    0.0000 C   0  0  0  0  0  0  0  0  0  0  0  0
    2.5981    1.5000    0.0000 S   0  0  0  0  0  0  0  0  0  0  0  0
    1.4359    1.3946   -1.2554 C   0  0  0  0  0  0  0  0  0  0  0  0
    0.7754    2.3500   -1.6259 O   0  0  0  0  0  0  0  0  0  0  0  0
    1.2516    0.0869   -1.6441 N   0  0  0  0  0  0  0  0  0  0  0  0
    0.2469   -0.6699   -0.9979 C   0  0  0  0  0  0  0  0  0  0  0  0
    0.5487   -2.0008   -0.7213 C   0  0  0  0  0  0  0  0  0  0  0  0
   -0.3753   -2.8020   -0.0593 C   0  0  0  0  0  0  0  0  0  0  0  0
   -1.6410   -2.3088    0.3041 C   0  0  0  0  0  0  0  0  0  0  0  0
   -2.6342   -3.2732    0.9360 C   0  0  1  0  0  0  0  0  0  0  0  0
   -2.8885   -4.5772    0.0984 C   0  0  0  0  0  0  0  0  0  0  0  0
   -4.0057   -4.5381   -0.8628 N   0  0  0  0  0  0  0  0  0  0  0  0
   -5.1818   -3.9435   -0.2166 C   0  0  0  0  0  0  0  0  0  0  0  0
   -4.8326   -2.5646    0.3351 C   0  0  0  0  0  0  0  0  0  0  0  0
   -3.8600   -2.6734    1.3820 O   0  0  0  0  0  0  0  0  0  0  0  0
   -1.8862   -0.9459    0.0928 C   0  0  0  0  0  0  0  0  0  0  0  0
   -3.0163   -0.3680    0.5200 F   0  0  0  0  0  0  0  0  0  0  0  0
   -0.9626   -0.1296   -0.5603 C   0  0  0  0  0  0  0  0  0  0  0  0
    3.2147    0.2167    0.7419 H   0  0  0  0  0  0  0  0  0  0  0  0
    4.0993    1.7563    0.4987 H   0  0  0  0  0  0  0  0  0  0  0  0
    4.3907    0.4650    0.0000 H   0  0  0  0  0  0  0  0  0  0  0  0
    2.1251   -0.4153   -1.7077 H   0  0  0  0  0  0  0  0  0  0  0  0
    1.5140   -2.4225   -0.9865 H   0  0  0  0  0  0  0  0  0  0  0  0
   -0.0923   -3.8273    0.1705 H   0  0  0  0  0  0  0  0  0  0  0  0
   -2.1444   -3.5978    1.8645 H   0  0  0  0  0  0  0  0  0  0  0  0
   -1.9927   -4.8803   -0.4538 H   0  0  0  0  0  0  0  0  0  0  0  0
   -3.0966   -5.3892    0.8061 H   0  0  0  0  0  0  0  0  0  0  0  0
   -4.2295   -5.4879   -1.1584 H   0  0  0  0  0  0  0  0  0  0  0  0
   -5.5251   -4.5968    0.5946 H   0  0  0  0  0  0  0  0  0  0  0  0
   -5.9901   -3.8577   -0.9493 H   0  0  0  0  0  0  0  0  0  0  0  0
   -5.7223   -2.0925    0.7620 H   0  0  0  0  0  0  0  0  0  0  0  0
   -4.4699   -1.9117   -0.4668 H   0  0  0  0  0  0  0  0  0  0  0  0
   -1.2163    0.9164   -0.7100 H   0  0  0  0  0  0  0  0  0  0  0  0
  1  2  1  0  0  0  0
  1 19  1  0  0  0  0
  1 20  1  0  0  0  0
  1 21  1  0  0  0  0
  2  3  1  0  0  0  0
  3  4  2  0  0  0  0
  3  5  1  0  0  0  0
  5  6  1  0  0  0  0
  5 22  1  0  0  0  0
  6 18  2  0  0  0  0
  6  7  1  0  0  0  0
  7  8  2  0  0  0  0
  7 23  1  0  0  0  0
  8  9  1  0  0  0  0
  8 24  1  0  0  0  0
  9 16  2  0  0  0  0
 10  9  1  0  0  0  0
 10 11  1  0  0  0  0
 10 15  1  0  0  0  0
 10 25  1  6  0  0  0
 11 12  1  0  0  0  0
 11 26  1  0  0  0  0
 11 27  1  0  0  0  0
 12 13  1  0  0  0  0
 12 28  1  0  0  0  0
 13 14  1  0  0  0  0
 13 29  1  0  0  0  0
 13 30  1  0  0  0  0
 14 15  1  0  0  0  0
 14 31  1  0  0  0  0
 14 32  1  0  0  0  0
 16 17  1  0  0  0  0
 16 18  1  0  0  0  0
 18 33  1  0  0  0  0
M  END
$$$$
