
 OpenBabel03202621352D

 20 20  0  0  0  0  0  0  0  0999 V2000
   -0.8660   -3.5000    0.0000 C   0  0  0  0  0  0  0  0  0  0  0  0
    0.0000   -3.0000    0.0000 S   0  0  0  0  0  0  0  0  0  0  0  0
    0.5746   -1.3849    0.1240 C   0  0  0  0  0  0  0  0  0  0  0  0
    2.2243   -1.2389    0.2722 S   0  0  0  0  0  0  0  0  0  0  0  0
   -0.4290   -0.4606    0.0722 N   0  0  0  0  0  0  0  0  0  0  0  0
   -0.5913    0.9640    0.0643 C   0  0  0  0  0  0  0  0  0  0  0  0
   -1.9589    1.3670    0.0434 C   0  0  0  0  0  0  0  0  0  0  0  0
   -3.2384    0.1808    0.0445 Cl  0  0  0  0  0  0  0  0  0  0  0  0
   -2.3665    2.7068    0.0190 C   0  0  0  0  0  0  0  0  0  0  0  0
   -1.4150    3.7101    0.0165 C   0  0  0  0  0  0  0  0  0  0  0  0
   -0.0740    3.3657    0.0345 C   0  0  0  0  0  0  0  0  0  0  0  0
    0.3484    2.0165    0.0565 C   0  0  0  0  0  0  0  0  0  0  0  0
    2.0646    1.9089    0.0357 Cl  0  0  0  0  0  0  0  0  0  0  0  0
   -1.2805   -3.1460   -0.9642 H   0  0  0  0  0  0  0  0  0  0  0  0
   -0.4734   -4.5233   -0.1501 H   0  0  0  0  0  0  0  0  0  0  0  0
   -1.7926   -4.0350    0.0000 H   0  0  0  0  0  0  0  0  0  0  0  0
   -1.3304   -0.9293    0.0280 H   0  0  0  0  0  0  0  0  0  0  0  0
   -3.4228    2.9647    0.0016 H   0  0  0  0  0  0  0  0  0  0  0  0
   -1.7150    4.7570   -0.0072 H   0  0  0  0  0  0  0  0  0  0  0  0
    0.6650    4.1707    0.0259 H   0  0  0  0  0  0  0  0  0  0  0  0
  1  2  1  0  0  0  0
  1 14  1  0  0  0  0
  1 15  1  0  0  0  0
  1 16  1  0  0  0  0
  2  3  1  0  0  0  0
  3  4  2  0  0  0  0
  3  5  1  0  0  0  0
  5  6  1  0  0  0  0
  5 17  1  0  0  0  0
  6 12  2  0  0  0  0
  6  7  1  0  0  0  0
  7  8  1  0  0  0  0
  7  9  2  0  0  0  0
  9 10  1  0  0  0  0
  9 18  1  0  0  0  0
 10 11  2  0  0  0  0
 10 19  1  0  0  0  0
 11 12  1  0  0  0  0
 11 20  1  0  0  0  0
 12 13  1  0  0  0  0
M  END
$$$$
