
 OpenBabel03202621282D

 21 24  0  0  0  0  0  0  0  0999 V2000
   -2.6518    2.3699    0.0000 C   0  0  0  0  0  0  0  0  0  0  0  0
   -3.1369    1.5297    0.0000 C   0  0  0  0  0  0  0  0  0  0  0  0
   -2.7423    0.6434    0.0000 C   0  0  0  0  0  0  0  0  0  0  0  0
   -3.4633   -0.0058    0.0000 N   0  0  0  0  0  0  0  0  0  0  0  0
   -3.3619   -0.9707    0.0000 C   0  0  0  0  0  0  0  0  0  0  0  0
   -4.1468   -1.5409    0.0000 O   0  0  0  0  0  0  0  0  0  0  0  0
   -2.5217   -1.4558    0.0000 C   0  0  0  0  0  0  0  0  0  0  0  0
   -2.5216   -2.4260    0.0000 C   0  0  0  0  0  0  0  0  0  0  0  0
   -1.6809   -2.9114    0.0000 C   0  0  0  0  0  0  0  0  0  0  0  0
   -0.8406   -2.4263    0.0000 C   0  0  0  0  0  0  0  0  0  0  0  0
   -0.8404   -1.4557    0.0000 C   0  0  0  0  0  0  0  0  0  0  0  0
   -1.6812   -0.9703    0.0000 C   0  0  0  0  0  0  0  0  0  0  0  0
   -1.6812   -0.0001    0.0000 C   0  0  0  0  0  0  0  0  0  0  0  0
   -0.8407    0.4854    0.0000 C   0  0  0  0  0  0  0  0  0  0  0  0
   -0.8405    1.4560    0.0000 C   0  0  0  0  0  0  0  0  0  0  0  0
   -0.0003    1.9411    0.0000 C   0  0  0  0  0  0  0  0  0  0  0  0
    0.8404    1.4557    0.0000 C   0  0  0  0  0  0  0  0  0  0  0  0
    0.8405    0.4855    0.0000 C   0  0  0  0  0  0  0  0  0  0  0  0
    0.0000   -0.0000    0.0000 C   0  0  0  0  0  0  0  0  0  0  0  0
   -4.3035    0.4793    0.0000 N   0  0  0  0  0  0  0  0  0  0  0  0
   -4.1018    1.4283    0.0000 N   0  0  0  0  0  0  0  0  0  0  0  0
  1  2  1  0  0  0  0
  2 21  1  0  0  0  0
  2  3  2  0  0  0  0
  3  4  1  0  0  0  0
  4  5  1  0  0  0  0
  4 20  1  0  0  0  0
  5  6  2  0  0  0  0
  5  7  1  0  0  0  0
  7 12  2  0  0  0  0
  7  8  1  0  0  0  0
  8  9  2  0  0  0  0
  9 10  1  0  0  0  0
 10 11  2  0  0  0  0
 11 19  1  0  0  0  0
 11 12  1  0  0  0  0
 12 13  1  0  0  0  0
 13 14  1  0  0  0  0
 14 19  2  0  0  0  0
 14 15  1  0  0  0  0
 15 16  2  0  0  0  0
 16 17  1  0  0  0  0
 17 18  2  0  0  0  0
 18 19  1  0  0  0  0
 20 21  2  0  0  0  0
M  END
$$$$
