
 OpenBabel03202621332D

 18 17  0  0  1  0  0  0  0  0999 V2000
    1.7321   -3.0000    0.0000 C   0  0  0  0  0  0  0  0  0  0  0  0
    2.5981   -2.5000    0.0000 C   0  0  0  0  0  0  0  0  0  0  0  0
    2.5981   -1.5000    0.0000 C   0  0  1  0  0  0  0  0  0  0  0  0
    3.4641   -1.0000    0.0000 C   0  0  0  0  0  0  0  0  0  0  0  0
    4.3301   -0.5000    0.0000 N   0  0  0  0  0  0  0  0  0  0  0  0
    1.4571   -0.2803   -0.0000 C   0  0  0  0  0  0  0  0  0  0  0  0
    1.7414    0.9261    0.0000 O   0  0  0  0  0  0  0  0  0  0  0  0
    0.0585   -0.6482   -0.0000 N   0  0  0  0  0  0  0  0  0  0  0  0
   -1.1414    0.0186   -0.0000 C   0  0  0  0  0  0  0  0  0  0  0  0
   -1.3894    1.2149   -0.0000 O   0  0  0  0  0  0  0  0  0  0  0  0
    0.8783   -2.4310    0.0000 H   0  0  0  0  0  0  0  0  0  0  0  0
    1.7527   -4.1560   -0.0000 H   0  0  0  0  0  0  0  0  0  0  0  0
    0.8055   -3.5350    0.0000 H   0  0  0  0  0  0  0  0  0  0  0  0
    3.0659   -3.5559    0.0000 H   0  0  0  0  0  0  0  0  0  0  0  0
    3.8387   -3.1691    0.0000 H   0  0  0  0  0  0  0  0  0  0  0  0
    3.5282   -1.8916   -0.0001 H   0  0  0  0  0  0  0  0  0  0  0  0
   -0.2762   -1.5893   -0.0000 H   0  0  0  0  0  0  0  0  0  0  0  0
   -1.9542   -0.7472    0.0000 H   0  0  0  0  0  0  0  0  0  0  0  0
  1  2  1  0  0  0  0
  1 11  1  0  0  0  0
  1 12  1  0  0  0  0
  1 13  1  0  0  0  0
  2 14  1  0  0  0  0
  2 15  1  0  0  0  0
  3  2  1  0  0  0  0
  3  4  1  0  0  0  0
  3  6  1  0  0  0  0
  3 16  1  1  0  0  0
  4  5  3  0  0  0  0
  6  7  2  0  0  0  0
  6  8  1  0  0  0  0
  8  9  1  0  0  0  0
  8 17  1  0  0  0  0
  9 10  2  0  0  0  0
  9 18  1  0  0  0  0
M  END
$$$$
