
 OpenBabel03202621342D

 17 17  0  0  0  0  0  0  0  0999 V2000
    2.5981   -0.5000    0.0000 C   0  0  0  0  0  0  0  0  0  0  0  0
    1.7321    0.0000    0.0000 S   0  0  0  0  0  0  0  0  0  0  0  0
    0.2544   -0.9614   -0.0000 C   0  0  0  0  0  0  0  0  0  0  0  0
    0.1324   -2.3464   -0.0000 C   0  0  0  0  0  0  0  0  0  0  0  0
   -1.1362   -2.9211   -0.0000 C   0  0  0  0  0  0  0  0  0  0  0  0
   -2.2746   -2.1196    0.0000 C   0  0  0  0  0  0  0  0  0  0  0  0
   -2.1681   -0.7359    0.0000 C   0  0  0  0  0  0  0  0  0  0  0  0
   -0.9056   -0.1617   -0.0000 C   0  0  0  0  0  0  0  0  0  0  0  0
   -0.8299    1.2119   -0.0000 O   0  0  0  0  0  0  0  0  0  0  0  0
    2.4561   -1.5798    0.0000 H   0  0  0  0  0  0  0  0  0  0  0  0
    3.3875    0.2580    0.0000 H   0  0  0  0  0  0  0  0  0  0  0  0
    3.5247   -1.0350    0.0000 H   0  0  0  0  0  0  0  0  0  0  0  0
    0.9992   -3.0027   -0.0000 H   0  0  0  0  0  0  0  0  0  0  0  0
   -1.2295   -4.0042   -0.0000 H   0  0  0  0  0  0  0  0  0  0  0  0
   -3.2570   -2.5733    0.0000 H   0  0  0  0  0  0  0  0  0  0  0  0
   -3.0327   -0.0871    0.0000 H   0  0  0  0  0  0  0  0  0  0  0  0
    0.1278    1.4199   -0.0000 H   0  0  0  0  0  0  0  0  0  0  0  0
  1  2  1  0  0  0  0
  1 10  1  0  0  0  0
  1 11  1  0  0  0  0
  1 12  1  0  0  0  0
  2  3  1  0  0  0  0
  3  8  2  0  0  0  0
  3  4  1  0  0  0  0
  4  5  2  0  0  0  0
  4 13  1  0  0  0  0
  5  6  1  0  0  0  0
  5 14  1  0  0  0  0
  6  7  2  0  0  0  0
  6 15  1  0  0  0  0
  7  8  1  0  0  0  0
  7 16  1  0  0  0  0
  8  9  1  0  0  0  0
  9 17  1  0  0  0  0
M  END
$$$$
