
 OpenBabel03202621312D

 18 17  0  0  1  0  0  0  0  0999 V2000
    1.7321   -2.0000    0.0000 C   0  0  0  0  0  0  0  0  0  0  0  0
    2.5981   -1.5000    0.0000 S   0  0  0  0  0  0  0  0  0  0  0  0
    3.2911   -0.1880    0.0000 C   0  0  0  0  0  0  0  0  0  0  0  0
    4.4212    0.2263   -0.0000 O   0  0  0  0  0  0  0  0  0  0  0  0
    1.7321    0.0000    0.0000 C   0  0  1  0  0  0  0  0  0  0  0  0
    1.7321    1.0000    0.0000 C   0  0  0  0  0  0  0  0  0  0  0  0
    0.8660   -0.5000    0.0000 S   0  0  0  0  0  0  0  0  0  0  0  0
    0.0000    0.0000    0.0000 C   0  0  0  0  0  0  0  0  0  0  0  0
    0.4173   -2.2269   -0.0000 H   0  0  0  0  0  0  0  0  0  0  0  0
    2.1536   -3.0343   -0.0000 H   0  0  0  0  0  0  0  0  0  0  0  0
    0.8055   -2.5350    0.0000 H   0  0  0  0  0  0  0  0  0  0  0  0
    2.5997    0.5774   -0.0000 H   0  0  0  0  0  0  0  0  0  0  0  0
    2.8222    1.8923    0.0000 H   0  0  0  0  0  0  0  0  0  0  0  0
    0.8996    1.7679   -0.0000 H   0  0  0  0  0  0  0  0  0  0  0  0
    1.7321    2.0700    0.0000 H   0  0  0  0  0  0  0  0  0  0  0  0
   -0.2976    1.0615    0.0000 H   0  0  0  0  0  0  0  0  0  0  0  0
   -0.7937   -0.7734    0.0000 H   0  0  0  0  0  0  0  0  0  0  0  0
   -0.9266    0.5350    0.0000 H   0  0  0  0  0  0  0  0  0  0  0  0
  1  2  1  0  0  0  0
  1  9  1  0  0  0  0
  1 10  1  0  0  0  0
  1 11  1  0  0  0  0
  2  3  1  0  0  0  0
  3  4  2  0  0  0  0
  3  5  1  0  0  0  0
  5  6  1  0  0  0  0
  5  7  1  0  0  0  0
  5 12  1  1  0  0  0
  6 13  1  0  0  0  0
  6 14  1  0  0  0  0
  6 15  1  0  0  0  0
  7  8  1  0  0  0  0
  8 16  1  0  0  0  0
  8 17  1  0  0  0  0
  8 18  1  0  0  0  0
M  END
$$$$
