
 OpenBabel03202621362D

 46 47  0  0  1  0  0  0  0  0999 V2000
    0.6340    4.0981    0.0000 C   0  0  0  0  0  0  0  0  0  0  0  0
   -0.3660    4.0981    0.0000 O   0  0  0  0  0  0  0  0  0  0  0  0
   -1.1354    3.3387   -0.6918 C   0  0  0  0  0  0  0  0  0  0  0  0
   -2.2351    3.5220   -1.1352 O   0  0  0  0  0  0  0  0  0  0  0  0
   -0.3660    2.3660    0.0000 C   0  0  1  0  0  0  0  0  0  0  0  0
    0.2440    2.2670   -1.5772 O   0  0  0  0  0  0  0  0  0  0  0  0
   -0.8660    1.5000    0.0000 C   0  0  1  0  0  0  0  0  0  0  0  0
   -1.6168    2.1037    1.5704 C   0  0  0  0  0  0  0  0  0  0  0  0
   -1.3660    0.6340    0.0000 O   0  0  0  0  0  0  0  0  0  0  0  0
   -2.9394    0.7979   -0.4807 C   0  0  0  0  0  0  0  0  0  0  0  0
   -3.5039   -0.1595   -1.2684 C   0  0  0  0  0  0  0  0  0  0  0  0
   -4.8405   -0.4086   -1.5205 O   0  0  0  0  0  0  0  0  0  0  0  0
   -5.7846    0.3757   -0.7766 C   0  0  0  0  0  0  0  0  0  0  0  0
   -5.2820    1.7913   -0.6907 C   0  0  0  0  0  0  0  0  0  0  0  0
   -4.0651    1.5992    0.1679 C   0  0  0  0  0  0  0  0  0  0  0  0
   -4.1560    1.8729    1.3619 O   0  0  0  0  0  0  0  0  0  0  0  0
    0.0833    0.7478    1.0819 C   0  0  0  0  0  0  0  0  0  0  0  0
    1.3387    0.7670    1.2834 C   0  0  0  0  0  0  0  0  0  0  0  0
    1.7321    1.0000    0.0000 C   0  0  0  0  0  0  0  0  0  0  0  0
    2.5981    1.5000    0.0000 C   0  0  0  0  0  0  0  0  0  0  0  0
    1.8026    0.0618   -1.0412 C   0  0  0  0  0  0  0  0  0  0  0  0
    0.9640   -0.8093   -0.7098 C   0  0  0  0  0  0  0  0  0  0  0  0
    0.0000    0.0000    0.0000 C   0  0  0  0  0  0  0  0  0  0  0  0
   -0.8660   -0.5000    0.0000 C   0  0  0  0  0  0  0  0  0  0  0  0
    0.8135    4.5878    0.9862 H   0  0  0  0  0  0  0  0  0  0  0  0
    0.8216    4.9021   -0.7491 H   0  0  0  0  0  0  0  0  0  0  0  0
    1.7040    4.0981    0.0000 H   0  0  0  0  0  0  0  0  0  0  0  0
    0.4096    2.5800    0.7771 H   0  0  0  0  0  0  0  0  0  0  0  0
    0.9558    2.9094   -1.7176 H   0  0  0  0  0  0  0  0  0  0  0  0
   -0.8835    2.5041    2.2998 H   0  0  0  0  0  0  0  0  0  0  0  0
   -2.1222    1.2854    2.1087 H   0  0  0  0  0  0  0  0  0  0  0  0
   -2.2884    2.9544    1.4002 H   0  0  0  0  0  0  0  0  0  0  0  0
   -2.9511   -0.9434   -1.7731 H   0  0  0  0  0  0  0  0  0  0  0  0
   -6.7503    0.3281   -1.2916 H   0  0  0  0  0  0  0  0  0  0  0  0
   -5.9285   -0.0750    0.2175 H   0  0  0  0  0  0  0  0  0  0  0  0
   -5.9922    2.4670   -0.2051 H   0  0  0  0  0  0  0  0  0  0  0  0
   -4.9994    2.2026   -1.6654 H   0  0  0  0  0  0  0  0  0  0  0  0
    1.7733    1.1397    2.2067 H   0  0  0  0  0  0  0  0  0  0  0  0
    3.3919    0.7149    0.1869 H   0  0  0  0  0  0  0  0  0  0  0  0
    2.6167    2.0233   -0.9886 H   0  0  0  0  0  0  0  0  0  0  0  0
    3.5247    2.0350    0.0000 H   0  0  0  0  0  0  0  0  0  0  0  0
    2.5153   -0.0073   -1.8500 H   0  0  0  0  0  0  0  0  0  0  0  0
    0.8007   -1.7254   -1.2633 H   0  0  0  0  0  0  0  0  0  0  0  0
   -0.6493   -1.3767    0.7137 H   0  0  0  0  0  0  0  0  0  0  0  0
   -0.9755   -0.9565   -1.0728 H   0  0  0  0  0  0  0  0  0  0  0  0
   -1.7926   -1.0350    0.0000 H   0  0  0  0  0  0  0  0  0  0  0  0
  1  2  1  0  0  0  0
  1 25  1  0  0  0  0
  1 26  1  0  0  0  0
  1 27  1  0  0  0  0
  2  3  1  0  0  0  0
  3  4  2  0  0  0  0
  3  5  1  0  0  0  0
  5  6  1  0  0  0  0
  5  7  1  0  0  0  0
  5 28  1  6  0  0  0
  6 29  1  0  0  0  0
  7  8  1  0  0  0  0
  7  9  1  6  0  0  0
  7 17  1  0  0  0  0
  8 30  1  0  0  0  0
  8 31  1  0  0  0  0
  8 32  1  0  0  0  0
  9 10  1  0  0  0  0
 10 15  1  0  0  0  0
 10 11  2  0  0  0  0
 11 12  1  0  0  0  0
 11 33  1  0  0  0  0
 12 13  1  0  0  0  0
 13 14  1  0  0  0  0
 13 34  1  0  0  0  0
 13 35  1  0  0  0  0
 14 15  1  0  0  0  0
 14 36  1  0  0  0  0
 14 37  1  0  0  0  0
 15 16  2  0  0  0  0
 17 23  2  0  0  0  0
 17 18  1  0  0  0  0
 18 19  2  0  0  0  0
 18 38  1  0  0  0  0
 19 20  1  0  0  0  0
 19 21  1  0  0  0  0
 20 39  1  0  0  0  0
 20 40  1  0  0  0  0
 20 41  1  0  0  0  0
 21 22  2  0  0  0  0
 21 42  1  0  0  0  0
 22 23  1  0  0  0  0
 22 43  1  0  0  0  0
 23 24  1  0  0  0  0
 24 44  1  0  0  0  0
 24 45  1  0  0  0  0
 24 46  1  0  0  0  0
M  END
$$$$
