
 OpenBabel03202621302D

 28 28  0  0  1  0  0  0  0  0999 V2000
    1.6750    3.0878    0.0000 C   0  0  0  0  0  0  0  0  0  0  0  0
    0.8090    3.5878    0.0000 S   0  0  0  0  0  0  0  0  0  0  0  0
    0.4411    3.6143   -1.7933 C   0  0  0  0  0  0  0  0  0  0  0  0
   -0.2460    2.3544   -2.3455 C   0  0  2  0  0  0  0  0  0  0  0  0
   -1.5798    2.2381   -1.8506 O   0  0  0  0  0  0  0  0  0  0  0  0
    0.5234    1.0077   -2.3128 C   0  0  0  0  0  0  0  0  0  0  0  0
    0.8616    0.3237   -1.0642 N   0  0  0  0  0  0  0  0  0  0  0  0
    2.0446   -0.3638   -0.9003 C   0  0  0  0  0  0  0  0  0  0  0  0
    1.8705   -1.1077    0.2386 C   0  0  0  0  0  0  0  0  0  0  0  0
    2.7448   -2.1301    0.7706 N   0  3  0  0  0  0  0  0  0  0  0  0
    2.3015   -2.8698    1.6585 O   0  0  0  0  0  0  0  0  0  0  0  0
    3.8751   -2.2094    0.2621 O   0  5  0  0  0  0  0  0  0  0  0  0
    0.6508   -0.8308    0.8129 N   0  0  0  0  0  0  0  0  0  0  0  0
    0.0000    0.0000    0.0000 C   0  0  0  0  0  0  0  0  0  0  0  0
   -0.9511    0.3090    0.0000 C   0  0  0  0  0  0  0  0  0  0  0  0
    1.6485    2.7010    1.0367 H   0  0  0  0  0  0  0  0  0  0  0  0
    2.3767    3.9464   -0.0129 H   0  0  0  0  0  0  0  0  0  0  0  0
    2.6016    2.5528    0.0000 H   0  0  0  0  0  0  0  0  0  0  0  0
   -0.2348    4.4663   -1.9379 H   0  0  0  0  0  0  0  0  0  0  0  0
    1.3520    3.8334   -2.3653 H   0  0  0  0  0  0  0  0  0  0  0  0
   -0.3865    2.5623   -3.4149 H   0  0  0  0  0  0  0  0  0  0  0  0
   -1.6473    2.7562   -1.0252 H   0  0  0  0  0  0  0  0  0  0  0  0
   -0.0598    0.2656   -2.8744 H   0  0  0  0  0  0  0  0  0  0  0  0
    1.4694    1.1522   -2.8524 H   0  0  0  0  0  0  0  0  0  0  0  0
    2.8478   -0.3358   -1.6270 H   0  0  0  0  0  0  0  0  0  0  0  0
   -1.0210    0.6912    1.0456 H   0  0  0  0  0  0  0  0  0  0  0  0
   -1.4655   -0.6782   -0.0808 H   0  0  0  0  0  0  0  0  0  0  0  0
   -1.9687    0.6396    0.0000 H   0  0  0  0  0  0  0  0  0  0  0  0
  1  2  1  0  0  0  0
  1 16  1  0  0  0  0
  1 17  1  0  0  0  0
  1 18  1  0  0  0  0
  2  3  1  0  0  0  0
  3  4  1  0  0  0  0
  3 19  1  0  0  0  0
  3 20  1  0  0  0  0
  4  5  1  0  0  0  0
  4  6  1  0  0  0  0
  4 21  1  6  0  0  0
  5 22  1  0  0  0  0
  6  7  1  0  0  0  0
  6 23  1  0  0  0  0
  6 24  1  0  0  0  0
  7 14  1  0  0  0  0
  7  8  1  0  0  0  0
  8  9  2  0  0  0  0
  8 25  1  0  0  0  0
  9 10  1  0  0  0  0
  9 13  1  0  0  0  0
 10 11  2  0  0  0  0
 10 12  1  0  0  0  0
 13 14  2  0  0  0  0
 14 15  1  0  0  0  0
 15 26  1  0  0  0  0
 15 27  1  0  0  0  0
 15 28  1  0  0  0  0
M  CHG  2  10   1  12  -1
M  END
$$$$
