
 OpenBabel03202621382D

 25 25  0  0  0  0  0  0  0  0999 V2000
    3.4641   -2.0000    0.0000 C   0  0  0  0  0  0  0  0  0  0  0  0
    2.5981   -1.5000    0.0000 C   0  0  0  0  0  0  0  0  0  0  0  0
    1.5981   -1.5000    0.0000 C   0  0  0  0  0  0  0  0  0  0  0  0
    2.6529   -2.4355   -1.9313 S   0  0  0  0  0  0  0  0  0  0  0  0
    2.4155    0.2029   -0.2019 C   0  0  0  0  0  0  0  0  0  0  0  0
    3.3890    0.9602   -0.4472 O   0  0  0  0  0  0  0  0  0  0  0  0
    1.0482    0.7730   -0.0170 O   0  0  0  0  0  0  0  0  0  0  0  0
   -0.5363    0.5737    0.2082 C   0  0  0  0  0  0  0  0  0  0  0  0
   -1.1212   -0.5259    0.7772 C   0  0  0  0  0  0  0  0  0  0  0  0
   -2.4374   -1.0147    0.2310 C   0  0  0  0  0  0  0  0  0  0  0  0
   -3.3909    0.0095   -0.0345 O   0  0  0  0  0  0  0  0  0  0  0  0
   -2.8125    1.2081   -0.4061 C   0  0  0  0  0  0  0  0  0  0  0  0
   -1.4956    1.5346   -0.3897 C   0  0  0  0  0  0  0  0  0  0  0  0
   -0.9560    2.6298   -0.6518 O   0  5  0  0  0  0  0  0  0  0  0  0
    3.3788   -2.5259    0.9903 H   0  0  0  0  0  0  0  0  0  0  0  0
    4.1844   -1.1708    0.2068 H   0  0  0  0  0  0  0  0  0  0  0  0
    4.3907   -2.5350    0.0000 H   0  0  0  0  0  0  0  0  0  0  0  0
    1.1472   -1.2909   -1.0047 H   0  0  0  0  0  0  0  0  0  0  0  0
    1.3311   -2.2990    0.7290 H   0  0  0  0  0  0  0  0  0  0  0  0
    0.5281   -1.5000    0.0000 H   0  0  0  0  0  0  0  0  0  0  0  0
    1.9320   -3.5022   -1.4937 H   0  0  0  0  0  0  0  0  0  0  0  0
   -0.6154   -1.2558    1.3906 H   0  0  0  0  0  0  0  0  0  0  0  0
   -2.2552   -1.5531   -0.7140 H   0  0  0  0  0  0  0  0  0  0  0  0
   -2.9015   -1.7366    0.8946 H   0  0  0  0  0  0  0  0  0  0  0  0
   -3.5769    1.8969   -0.7078 H   0  0  0  0  0  0  0  0  0  0  0  0
  1  2  1  0  0  0  0
  1 15  1  0  0  0  0
  1 16  1  0  0  0  0
  1 17  1  0  0  0  0
  2  3  1  0  0  0  0
  2  4  1  0  0  0  0
  2  5  1  0  0  0  0
  3 18  1  0  0  0  0
  3 19  1  0  0  0  0
  3 20  1  0  0  0  0
  4 21  1  0  0  0  0
  5  6  2  0  0  0  0
  5  7  1  0  0  0  0
  7  8  1  0  0  0  0
  8 13  1  0  0  0  0
  8  9  2  0  0  0  0
  9 10  1  0  0  0  0
  9 22  1  0  0  0  0
 10 11  1  0  0  0  0
 10 23  1  0  0  0  0
 10 24  1  0  0  0  0
 11 12  1  0  0  0  0
 12 13  2  0  0  0  0
 12 25  1  0  0  0  0
 13 14  1  0  0  0  0
M  CHG  1  14  -1
M  END
$$$$
