
 OpenBabel03202621382D

 18 18  0  0  0  0  0  0  0  0999 V2000
   -2.5981   -1.5000    0.0000 C   0  0  0  0  0  0  0  0  0  0  0  0
   -1.7321   -2.0000    0.0000 S   0  0  0  0  0  0  0  0  0  0  0  0
   -0.2328   -1.1333    0.1553 C   0  0  0  0  0  0  0  0  0  0  0  0
    0.7910   -1.8028    0.2895 O   0  0  0  0  0  0  0  0  0  0  0  0
   -0.0917    0.3620    0.0971 C   0  0  0  0  0  0  0  0  0  0  0  0
   -1.1442    1.2842    0.1228 C   0  0  0  0  0  0  0  0  0  0  0  0
   -0.8884    2.6624    0.0719 C   0  0  0  0  0  0  0  0  0  0  0  0
    0.4191    3.1380    0.0019 C   0  0  0  0  0  0  0  0  0  0  0  0
    1.4773    2.2392   -0.0199 C   0  0  0  0  0  0  0  0  0  0  0  0
    1.2237    0.8660    0.0269 C   0  0  0  0  0  0  0  0  0  0  0  0
   -2.5855   -1.1131   -1.0395 H   0  0  0  0  0  0  0  0  0  0  0  0
   -3.2923   -2.3618    0.0166 H   0  0  0  0  0  0  0  0  0  0  0  0
   -3.5247   -0.9650    0.0000 H   0  0  0  0  0  0  0  0  0  0  0  0
   -2.1828    0.9820    0.1931 H   0  0  0  0  0  0  0  0  0  0  0  0
   -1.7154    3.3686    0.0918 H   0  0  0  0  0  0  0  0  0  0  0  0
    0.6120    4.2085   -0.0316 H   0  0  0  0  0  0  0  0  0  0  0  0
    2.5034    2.6001   -0.0686 H   0  0  0  0  0  0  0  0  0  0  0  0
    2.0731    0.1831    0.0100 H   0  0  0  0  0  0  0  0  0  0  0  0
  1  2  1  0  0  0  0
  1 11  1  0  0  0  0
  1 12  1  0  0  0  0
  1 13  1  0  0  0  0
  2  3  1  0  0  0  0
  3  4  2  0  0  0  0
  3  5  1  0  0  0  0
  5 10  2  0  0  0  0
  5  6  1  0  0  0  0
  6  7  2  0  0  0  0
  6 14  1  0  0  0  0
  7  8  1  0  0  0  0
  7 15  1  0  0  0  0
  8  9  2  0  0  0  0
  8 16  1  0  0  0  0
  9 10  1  0  0  0  0
  9 17  1  0  0  0  0
 10 18  1  0  0  0  0
M  END
$$$$
