
 OpenBabel03202621282D

 36 38  0  0  1  0  0  0  0  0999 V2000
    0.5000   -6.0622    0.0000 C   0  0  0  0  0  0  0  0  0  0  0  0
    1.5000   -6.0622    0.0000 C   0  0  0  0  0  0  0  0  0  0  0  0
    2.0000   -6.9282    0.0000 O   0  0  0  0  0  0  0  0  0  0  0  0
    2.0000   -5.1962    0.0000 C   0  0  0  0  0  0  0  0  0  0  0  0
    1.5000   -4.3301    0.0000 C   0  0  0  0  0  0  0  0  0  0  0  0
    0.5000   -4.3301    0.0000 O   0  0  0  0  0  0  0  0  0  0  0  0
    2.0000   -3.4641    0.0000 C   0  0  2  0  0  0  0  0  0  0  0  0
    3.0000   -3.4641    0.0000 O   0  0  0  0  0  0  0  0  0  0  0  0
    1.5000   -2.5981    0.0000 C   0  0  0  0  0  0  0  0  0  0  0  0
    0.5000   -2.5981    0.0000 O   0  0  0  0  0  0  0  0  0  0  0  0
    2.0000   -1.7321    0.0000 C   0  0  2  0  0  0  0  0  0  0  0  0
    3.0000   -1.7321    0.0000 C   0  0  0  0  0  0  0  0  0  0  0  0
    3.5000   -0.8660    0.0000 C   0  0  0  0  0  0  0  0  0  0  0  0
    4.5000   -0.8660    0.0000 N   0  0  0  0  0  0  0  0  0  0  0  0
    5.0878   -0.0570    0.0000 N   0  0  0  0  0  0  0  0  0  0  0  0
    6.0388   -0.3660    0.0000 N   0  0  0  0  0  0  0  0  0  0  0  0
    6.0388   -1.3660    0.0000 C   0  0  0  0  0  0  0  0  0  0  0  0
    6.8479   -1.9538    0.0000 C   0  0  0  0  0  0  0  0  0  0  0  0
    6.7433   -2.9483    0.0000 O   0  0  0  0  0  0  0  0  0  0  0  0
    7.7614   -1.5471    0.0000 O   0  0  0  0  0  0  0  0  0  0  0  0
    5.0878   -1.6750    0.0000 C   0  0  0  0  0  0  0  0  0  0  0  0
    4.7788   -2.6261    0.0000 C   0  0  0  0  0  0  0  0  0  0  0  0
    5.3666   -3.4351    0.0000 C   0  0  0  0  0  0  0  0  0  0  0  0
    4.7788   -4.2441    0.0000 C   0  0  0  0  0  0  0  0  0  0  0  0
    3.8277   -3.9351    0.0000 N   0  0  0  0  0  0  0  0  0  0  0  0
    3.0187   -4.5229    0.0000 C   0  0  0  0  0  0  0  0  0  0  0  0
    3.8277   -2.9351    0.0000 N   0  0  0  0  0  0  0  0  0  0  0  0
    1.5000   -0.8660    0.0000 C   0  0  0  0  0  0  0  0  0  0  0  0
    2.0000   -0.0000    0.0000 O   0  0  0  0  0  0  0  0  0  0  0  0
    0.5000   -0.8660    0.0000 C   0  0  0  0  0  0  0  0  0  0  0  0
   -0.0000   -1.7321    0.0000 C   0  0  0  0  0  0  0  0  0  0  0  0
   -1.0000   -1.7321    0.0000 C   0  0  0  0  0  0  0  0  0  0  0  0
   -1.5000   -0.8660    0.0000 C   0  0  0  0  0  0  0  0  0  0  0  0
   -1.0000    0.0000    0.0000 C   0  0  0  0  0  0  0  0  0  0  0  0
    0.0000   -0.0000    0.0000 C   0  0  0  0  0  0  0  0  0  0  0  0
    0.5000    0.8660    0.0000 O   0  5  0  0  0  0  0  0  0  0  0  0
  1  2  1  0  0  0  0
  2  3  2  0  0  0  0
  2  4  1  0  0  0  0
  4  5  1  0  0  0  0
  5  6  2  0  0  0  0
  5  7  1  0  0  0  0
  7  8  1  1  0  0  0
  7  9  1  0  0  0  0
  9 10  2  0  0  0  0
  9 11  1  0  0  0  0
 11 12  1  1  0  0  0
 11 28  1  0  0  0  0
 12 13  1  0  0  0  0
 13 14  1  0  0  0  0
 14 21  1  0  0  0  0
 14 15  1  0  0  0  0
 15 16  2  0  0  0  0
 16 17  1  0  0  0  0
 17 18  1  0  0  0  0
 17 21  2  0  0  0  0
 18 19  2  0  0  0  0
 18 20  1  0  0  0  0
 21 22  1  0  0  0  0
 22 27  2  0  0  0  0
 22 23  1  0  0  0  0
 23 24  2  0  0  0  0
 24 25  1  0  0  0  0
 25 26  1  0  0  0  0
 25 27  1  0  0  0  0
 28 29  2  0  0  0  0
 28 30  1  0  0  0  0
 30 35  2  0  0  0  0
 30 31  1  0  0  0  0
 31 32  2  0  0  0  0
 32 33  1  0  0  0  0
 33 34  2  0  0  0  0
 34 35  1  0  0  0  0
 35 36  1  0  0  0  0
M  CHG  1  36  -1
M  END
$$$$
