
 OpenBabel03202621302D

 20 19  0  0  0  0  0  0  0  0999 V2000
    2.5981    2.5000    0.0000 C   0  0  0  0  0  0  0  0  0  0  0  0
    2.5981    1.5000    0.0000 C   0  0  0  0  0  0  0  0  0  0  0  0
    3.0981    0.6340    0.0000 C   0  0  0  0  0  0  0  0  0  0  0  0
    1.9917    1.3889   -1.4667 N   0  0  0  0  0  0  0  0  0  0  0  0
    1.1432    1.0883    0.8063 C   0  0  0  0  0  0  0  0  0  0  0  0
    0.3860    1.9367    1.4185 N   0  0  0  0  0  0  0  0  0  0  0  0
    0.7427   -0.2448    0.7143 N   0  0  0  0  0  0  0  0  0  0  0  0
   -0.4088   -0.8193    1.2192 C   0  0  0  0  0  0  0  0  0  0  0  0
   -1.0982   -0.4765    2.1667 O   0  0  0  0  0  0  0  0  0  0  0  0
    3.5530    2.7566   -0.5541 H   0  0  0  0  0  0  0  0  0  0  0  0
    2.8673    2.6985    1.0763 H   0  0  0  0  0  0  0  0  0  0  0  0
    2.5981    3.5700    0.0000 H   0  0  0  0  0  0  0  0  0  0  0  0
    3.3982    0.5743    1.0843 H   0  0  0  0  0  0  0  0  0  0  0  0
    4.0568    0.8933   -0.5412 H   0  0  0  0  0  0  0  0  0  0  0  0
    3.6331   -0.2926    0.0000 H   0  0  0  0  0  0  0  0  0  0  0  0
    1.6040    0.4662   -1.6589 H   0  0  0  0  0  0  0  0  0  0  0  0
    2.7232    1.5520   -2.1652 H   0  0  0  0  0  0  0  0  0  0  0  0
    0.7397    2.8927    1.3653 H   0  0  0  0  0  0  0  0  0  0  0  0
    1.2323   -0.8159    0.0452 H   0  0  0  0  0  0  0  0  0  0  0  0
   -0.6065   -1.7764    0.7055 H   0  0  0  0  0  0  0  0  0  0  0  0
  1  2  1  0  0  0  0
  1 10  1  0  0  0  0
  1 11  1  0  0  0  0
  1 12  1  0  0  0  0
  2  3  1  0  0  0  0
  2  4  1  0  0  0  0
  2  5  1  0  0  0  0
  3 13  1  0  0  0  0
  3 14  1  0  0  0  0
  3 15  1  0  0  0  0
  4 16  1  0  0  0  0
  4 17  1  0  0  0  0
  5  6  2  0  0  0  0
  5  7  1  0  0  0  0
  6 18  1  0  0  0  0
  7  8  1  0  0  0  0
  7 19  1  0  0  0  0
  8  9  2  0  0  0  0
  8 20  1  0  0  0  0
M  END
$$$$
