
 OpenBabel03202621322D

 23 23  0  0  1  0  0  0  0  0999 V2000
    0.8294   -5.4758   -0.2682 C   0  0  0  0  0  0  0  0  0  0  0  0
    1.8878   -4.7453    0.9966 S   0  0  0  0  0  0  0  0  0  0  0  0
    2.5155   -3.3450    0.1411 C   0  0  0  0  0  0  0  0  0  0  0  0
    4.0858   -3.2585   -0.3884 S   0  0  0  0  0  0  0  0  0  0  0  0
    1.5144   -2.4193    0.0316 N   0  0  0  0  0  0  0  0  0  0  0  0
    1.5627   -0.9687    0.2258 C   0  0  1  0  0  0  0  0  0  0  0  0
    2.7275   -0.1961   -0.3835 C   0  0  0  0  0  0  0  0  0  0  0  0
    0.2613   -0.4229   -0.3174 C   0  0  0  0  0  0  0  0  0  0  0  0
   -1.0633   -0.7066    0.3568 C   0  0  0  0  0  0  0  0  0  0  0  0
   -0.4680    0.6696    0.4172 C   0  0  0  0  0  0  0  0  0  0  0  0
    0.2907   -4.7159   -0.8409 H   0  0  0  0  0  0  0  0  0  0  0  0
    1.4212   -6.0908   -0.9524 H   0  0  0  0  0  0  0  0  0  0  0  0
    0.0920   -6.1138    0.2245 H   0  0  0  0  0  0  0  0  0  0  0  0
    0.6622   -2.7967    0.4236 H   0  0  0  0  0  0  0  0  0  0  0  0
    1.5977   -0.8270    1.3131 H   0  0  0  0  0  0  0  0  0  0  0  0
    3.6697   -0.4287    0.1177 H   0  0  0  0  0  0  0  0  0  0  0  0
    2.5706    0.8828   -0.2641 H   0  0  0  0  0  0  0  0  0  0  0  0
    2.8329   -0.3980   -1.4546 H   0  0  0  0  0  0  0  0  0  0  0  0
    0.2562   -0.3933   -1.4037 H   0  0  0  0  0  0  0  0  0  0  0  0
   -1.0765   -1.2911    1.2694 H   0  0  0  0  0  0  0  0  0  0  0  0
   -1.9300   -0.8557   -0.2772 H   0  0  0  0  0  0  0  0  0  0  0  0
   -0.0806    1.0131    1.3724 H   0  0  0  0  0  0  0  0  0  0  0  0
   -0.9340    1.4549   -0.1720 H   0  0  0  0  0  0  0  0  0  0  0  0
  1  2  1  0  0  0  0
  1 11  1  0  0  0  0
  1 12  1  0  0  0  0
  1 13  1  0  0  0  0
  2  3  1  0  0  0  0
  3  4  2  0  0  0  0
  3  5  1  0  0  0  0
  5  6  1  0  0  0  0
  5 14  1  0  0  0  0
  6  7  1  0  0  0  0
  6  8  1  0  0  0  0
  6 15  1  1  0  0  0
  7 16  1  0  0  0  0
  7 17  1  0  0  0  0
  7 18  1  0  0  0  0
  8 10  1  0  0  0  0
  8  9  1  0  0  0  0
  8 19  1  0  0  0  0
  9 10  1  0  0  0  0
  9 20  1  0  0  0  0
  9 21  1  0  0  0  0
 10 22  1  0  0  0  0
 10 23  1  0  0  0  0
M  END
$$$$
