
 OpenBabel03202621402D

 14 14  0  0  0  0  0  0  0  0999 V2000
   -0.8660   -2.5000    0.0000 N   0  0  0  0  0  0  0  0  0  0  0  0
   -0.8660   -1.5000    0.0000 C   0  0  0  0  0  0  0  0  0  0  0  0
   -0.8660   -0.5000    0.0000 C   0  0  0  0  0  0  0  0  0  0  0  0
   -1.9781    0.2596   -0.1135 C   0  0  0  0  0  0  0  0  0  0  0  0
   -2.0590    1.6288   -0.1399 O   0  0  0  0  0  0  0  0  0  0  0  0
   -0.8514    2.3942   -0.0211 C   0  0  0  0  0  0  0  0  0  0  0  0
    0.4007    1.5937    0.0926 C   0  0  0  0  0  0  0  0  0  0  0  0
    0.3919    0.2583    0.0934 C   0  0  0  0  0  0  0  0  0  0  0  0
    1.6094   -0.4080    0.1700 O   0  0  0  0  0  0  0  0  0  0  0  0
   -2.9817   -0.1485   -0.2104 H   0  0  0  0  0  0  0  0  0  0  0  0
   -0.9534    3.0385    0.8585 H   0  0  0  0  0  0  0  0  0  0  0  0
   -0.7845    3.0417   -0.9013 H   0  0  0  0  0  0  0  0  0  0  0  0
    1.3418    2.1283    0.1646 H   0  0  0  0  0  0  0  0  0  0  0  0
    1.4871   -1.3677    0.0577 H   0  0  0  0  0  0  0  0  0  0  0  0
  1  2  3  0  0  0  0
  2  3  1  0  0  0  0
  3  8  1  0  0  0  0
  3  4  2  0  0  0  0
  4  5  1  0  0  0  0
  4 10  1  0  0  0  0
  5  6  1  0  0  0  0
  6  7  1  0  0  0  0
  6 11  1  0  0  0  0
  6 12  1  0  0  0  0
  7  8  2  0  0  0  0
  7 13  1  0  0  0  0
  8  9  1  0  0  0  0
  9 14  1  0  0  0  0
M  END
$$$$
