
 OpenBabel03202621392D

 31 32  0  0  0  0  0  0  0  0999 V2000
   -0.0933   -1.7796    0.0000 C   0  0  0  0  0  0  0  0  0  0  0  0
   -0.5000   -0.8660    0.0000 C   0  0  0  0  0  0  0  0  0  0  0  0
   -1.5760   -0.3259   -0.6677 C   0  0  0  0  0  0  0  0  0  0  0  0
   -1.6027    1.0054   -0.3213 N   0  0  0  0  0  0  0  0  0  0  0  0
   -2.7935    1.7946   -0.0688 C   0  0  0  0  0  0  0  0  0  0  0  0
   -3.8538    0.8092    0.3582 C   0  0  0  0  0  0  0  0  0  0  0  0
   -5.0596    1.4022    0.7711 O   0  0  0  0  0  0  0  0  0  0  0  0
   -6.1198    0.5970    0.4490 C   0  0  0  0  0  0  0  0  0  0  0  0
   -6.0749   -0.8112    0.5314 C   0  0  0  0  0  0  0  0  0  0  0  0
   -7.2012   -1.5625    0.2068 C   0  0  0  0  0  0  0  0  0  0  0  0
   -8.3822   -0.9086   -0.1267 C   0  0  0  0  0  0  0  0  0  0  0  0
   -9.7978   -1.8388   -0.4238 Cl  0  0  0  0  0  0  0  0  0  0  0  0
   -8.4279    0.4834   -0.2348 C   0  0  0  0  0  0  0  0  0  0  0  0
   -7.2785    1.2339    0.0119 C   0  0  0  0  0  0  0  0  0  0  0  0
   -7.2076    2.6818   -0.3051 C   0  0  0  0  0  0  0  0  0  0  0  0
   -6.2911    3.2689   -0.8326 O   0  0  0  0  0  0  0  0  0  0  0  0
   -8.3236    3.3283    0.0870 O   0  0  0  0  0  0  0  0  0  0  0  0
   -0.4699    1.3620    0.2758 N   0  0  0  0  0  0  0  0  0  0  0  0
    0.1888    0.2486    0.5135 N   0  0  0  0  0  0  0  0  0  0  0  0
   -0.8257   -2.2901    0.6716 H   0  0  0  0  0  0  0  0  0  0  0  0
    0.8412   -1.6424    0.5994 H   0  0  0  0  0  0  0  0  0  0  0  0
    0.3419   -2.7571    0.0000 H   0  0  0  0  0  0  0  0  0  0  0  0
   -2.3539   -0.8004   -1.2497 H   0  0  0  0  0  0  0  0  0  0  0  0
   -2.5814    2.5222    0.7249 H   0  0  0  0  0  0  0  0  0  0  0  0
   -3.0509    2.3402   -0.9812 H   0  0  0  0  0  0  0  0  0  0  0  0
   -3.4823    0.1884    1.1868 H   0  0  0  0  0  0  0  0  0  0  0  0
   -4.0423    0.1769   -0.5184 H   0  0  0  0  0  0  0  0  0  0  0  0
   -5.1722   -1.3382    0.8201 H   0  0  0  0  0  0  0  0  0  0  0  0
   -7.1444   -2.6481    0.2309 H   0  0  0  0  0  0  0  0  0  0  0  0
   -9.3439    0.9787   -0.5394 H   0  0  0  0  0  0  0  0  0  0  0  0
   -8.1053    4.2651   -0.1076 H   0  0  0  0  0  0  0  0  0  0  0  0
  1  2  1  0  0  0  0
  1 20  1  0  0  0  0
  1 21  1  0  0  0  0
  1 22  1  0  0  0  0
  2 19  1  0  0  0  0
  2  3  2  0  0  0  0
  3  4  1  0  0  0  0
  3 23  1  0  0  0  0
  4  5  1  0  0  0  0
  4 18  1  0  0  0  0
  5  6  1  0  0  0  0
  5 24  1  0  0  0  0
  5 25  1  0  0  0  0
  6  7  1  0  0  0  0
  6 26  1  0  0  0  0
  6 27  1  0  0  0  0
  7  8  1  0  0  0  0
  8 14  2  0  0  0  0
  8  9  1  0  0  0  0
  9 10  2  0  0  0  0
  9 28  1  0  0  0  0
 10 11  1  0  0  0  0
 10 29  1  0  0  0  0
 11 12  1  0  0  0  0
 11 13  2  0  0  0  0
 13 14  1  0  0  0  0
 13 30  1  0  0  0  0
 14 15  1  0  0  0  0
 15 16  2  0  0  0  0
 15 17  1  0  0  0  0
 17 31  1  0  0  0  0
 18 19  2  0  0  0  0
M  END
$$$$
