
 OpenBabel03202621332D

 21 20  0  0  0  0  0  0  0  0999 V2000
    6.9282   -2.0000    0.0000 C   0  0  0  0  0  0  0  0  0  0  0  0
    6.9282   -1.0000    0.0000 S   0  0  0  0  0  0  0  0  0  0  0  0
    5.6359    0.0675   -0.3483 C   0  0  0  0  0  0  0  0  0  0  0  0
    5.8820    1.7206   -0.4287 S   0  0  0  0  0  0  0  0  0  0  0  0
    4.4337   -0.5636   -0.4851 N   0  0  0  0  0  0  0  0  0  0  0  0
    3.1417    0.0900   -0.3708 C   0  0  0  0  0  0  0  0  0  0  0  0
    2.0793   -0.9451   -0.0573 C   0  0  0  0  0  0  0  0  0  0  0  0
    0.7567   -0.3018    0.3290 C   0  0  0  0  0  0  0  0  0  0  0  0
   -0.1542   -1.3908    0.7058 N   0  0  0  0  0  0  0  0  0  0  0  0
   -1.2951   -1.1487    0.5927 C   0  0  0  0  0  0  0  0  0  0  0  0
   -2.8500   -0.8387    0.4371 S   0  0  0  0  0  0  0  0  0  0  0  0
    6.3758   -2.1839    0.9432 H   0  0  0  0  0  0  0  0  0  0  0  0
    8.0029   -2.1712    0.2000 H   0  0  0  0  0  0  0  0  0  0  0  0
    6.9282   -3.0700    0.0000 H   0  0  0  0  0  0  0  0  0  0  0  0
    4.4509   -1.5747   -0.4626 H   0  0  0  0  0  0  0  0  0  0  0  0
    3.1960    0.8326    0.4337 H   0  0  0  0  0  0  0  0  0  0  0  0
    2.9305    0.6142   -1.3094 H   0  0  0  0  0  0  0  0  0  0  0  0
    2.4245   -1.5851    0.7661 H   0  0  0  0  0  0  0  0  0  0  0  0
    1.9427   -1.6072   -0.9216 H   0  0  0  0  0  0  0  0  0  0  0  0
    0.9012    0.3693    1.1855 H   0  0  0  0  0  0  0  0  0  0  0  0
    0.3756    0.2937   -0.5113 H   0  0  0  0  0  0  0  0  0  0  0  0
  1  2  1  0  0  0  0
  1 12  1  0  0  0  0
  1 13  1  0  0  0  0
  1 14  1  0  0  0  0
  2  3  1  0  0  0  0
  3  4  2  0  0  0  0
  3  5  1  0  0  0  0
  5  6  1  0  0  0  0
  5 15  1  0  0  0  0
  6  7  1  0  0  0  0
  6 16  1  0  0  0  0
  6 17  1  0  0  0  0
  7  8  1  0  0  0  0
  7 18  1  0  0  0  0
  7 19  1  0  0  0  0
  8  9  1  0  0  0  0
  8 20  1  0  0  0  0
  8 21  1  0  0  0  0
  9 10  2  0  0  0  0
 10 11  2  0  0  0  0
M  END
$$$$
