
 OpenBabel03202621342D

 26 25  0  0  1  0  0  0  0  0999 V2000
    4.0125    2.7200    0.2904 C   0  0  0  0  0  0  0  0  0  0  0  0
    3.7884    4.0220    0.0406 C   0  0  0  0  0  0  0  0  0  0  0  0
    2.4530    4.7054   -0.1914 C   0  0  0  0  0  0  0  0  0  0  0  0
    1.2547    3.7541   -0.1120 C   0  0  0  0  0  0  0  0  0  0  0  0
   -0.0728    4.3067   -0.4070 N   0  0  0  0  0  0  0  0  0  0  0  0
   -1.1960    3.4915    0.1699 C   0  0  2  0  0  0  0  0  0  0  0  0
   -2.4960    4.2578   -0.0920 C   0  0  0  0  0  0  0  0  0  0  0  0
   -1.3383    2.0311   -0.3752 C   0  0  0  0  0  0  0  0  0  0  0  0
   -2.3395    1.5930   -0.9304 O   0  0  0  0  0  0  0  0  0  0  0  0
    0.0000    1.0000    0.0000 S   0  0  0  0  0  0  0  0  0  0  0  0
    0.0000    0.0000    0.0000 C   0  0  0  0  0  0  0  0  0  0  0  0
    3.2193    1.9838    0.3581 H   0  0  0  0  0  0  0  0  0  0  0  0
    5.0224    2.3450    0.4293 H   0  0  0  0  0  0  0  0  0  0  0  0
    4.6557    4.6757   -0.0135 H   0  0  0  0  0  0  0  0  0  0  0  0
    2.4801    5.1829   -1.1774 H   0  0  0  0  0  0  0  0  0  0  0  0
    2.3402    5.4991    0.5561 H   0  0  0  0  0  0  0  0  0  0  0  0
    1.4487    2.9794   -0.8584 H   0  0  0  0  0  0  0  0  0  0  0  0
    1.2581    3.3329    0.9005 H   0  0  0  0  0  0  0  0  0  0  0  0
   -0.1306    5.2474   -0.0160 H   0  0  0  0  0  0  0  0  0  0  0  0
   -1.0708    3.4303    1.2598 H   0  0  0  0  0  0  0  0  0  0  0  0
   -2.4580    5.2650    0.3375 H   0  0  0  0  0  0  0  0  0  0  0  0
   -3.3501    3.7401    0.3592 H   0  0  0  0  0  0  0  0  0  0  0  0
   -2.6958    4.3510   -1.1657 H   0  0  0  0  0  0  0  0  0  0  0  0
   -0.1441   -0.1867   -1.0830 H   0  0  0  0  0  0  0  0  0  0  0  0
    1.0683   -0.1705    0.2324 H   0  0  0  0  0  0  0  0  0  0  0  0
    0.0000   -1.0700    0.0000 H   0  0  0  0  0  0  0  0  0  0  0  0
  1  2  2  0  0  0  0
  1 12  1  0  0  0  0
  1 13  1  0  0  0  0
  2  3  1  0  0  0  0
  2 14  1  0  0  0  0
  3  4  1  0  0  0  0
  3 15  1  0  0  0  0
  3 16  1  0  0  0  0
  4  5  1  0  0  0  0
  4 17  1  0  0  0  0
  4 18  1  0  0  0  0
  5  6  1  0  0  0  0
  5 19  1  0  0  0  0
  6  7  1  0  0  0  0
  6  8  1  0  0  0  0
  6 20  1  6  0  0  0
  7 21  1  0  0  0  0
  7 22  1  0  0  0  0
  7 23  1  0  0  0  0
  8  9  2  0  0  0  0
  8 10  1  0  0  0  0
 10 11  1  0  0  0  0
 11 24  1  0  0  0  0
 11 25  1  0  0  0  0
 11 26  1  0  0  0  0
M  END
$$$$
