
 OpenBabel03202621342D

 17 17  0  0  0  0  0  0  0  0999 V2000
    0.8090    1.5878    0.0000 C   0  0  0  0  0  0  0  0  0  0  0  0
    0.8090    0.5878    0.0000 N   0  0  0  0  0  0  0  0  0  0  0  0
    1.9181   -0.3357    0.1570 C   0  0  0  0  0  0  0  0  0  0  0  0
    1.3380   -1.6363    0.4866 N   0  0  0  0  0  0  0  0  0  0  0  0
   -0.0441   -1.6015    0.0300 C   0  0  0  0  0  0  0  0  0  0  0  0
   -0.3436   -0.2006   -0.0835 N   0  0  0  0  0  0  0  0  0  0  0  0
   -1.6134    0.2412   -0.4001 C   0  0  0  0  0  0  0  0  0  0  0  0
   -2.5928   -0.4755   -0.5662 O   0  0  0  0  0  0  0  0  0  0  0  0
    1.8023    1.8182   -0.4444 H   0  0  0  0  0  0  0  0  0  0  0  0
    0.8211    1.7794    1.0955 H   0  0  0  0  0  0  0  0  0  0  0  0
    0.8090    2.6578    0.0000 H   0  0  0  0  0  0  0  0  0  0  0  0
    2.6082   -0.0390    0.9553 H   0  0  0  0  0  0  0  0  0  0  0  0
    2.4841   -0.4143   -0.7806 H   0  0  0  0  0  0  0  0  0  0  0  0
    1.8407   -2.3729    0.0020 H   0  0  0  0  0  0  0  0  0  0  0  0
   -0.1626   -2.0667   -0.9550 H   0  0  0  0  0  0  0  0  0  0  0  0
   -0.7228   -2.0824    0.7427 H   0  0  0  0  0  0  0  0  0  0  0  0
   -1.6819    1.3375   -0.4913 H   0  0  0  0  0  0  0  0  0  0  0  0
  1  2  1  0  0  0  0
  1  9  1  0  0  0  0
  1 10  1  0  0  0  0
  1 11  1  0  0  0  0
  2  6  1  0  0  0  0
  2  3  1  0  0  0  0
  3  4  1  0  0  0  0
  3 12  1  0  0  0  0
  3 13  1  0  0  0  0
  4  5  1  0  0  0  0
  4 14  1  0  0  0  0
  5  6  1  0  0  0  0
  5 15  1  0  0  0  0
  5 16  1  0  0  0  0
  6  7  1  0  0  0  0
  7  8  2  0  0  0  0
  7 17  1  0  0  0  0
M  END
$$$$
