
 OpenBabel03202621302D

 24 24  0  0  0  0  0  0  0  0999 V2000
    4.3301    2.5000    0.0000 C   0  0  0  0  0  0  0  0  0  0  0  0
    3.4641    3.0000    0.0000 S   0  0  0  0  0  0  0  0  0  0  0  0
    1.8292    2.6947    0.0001 C   0  0  0  0  0  0  0  0  0  0  0  0
    0.9570    3.5272    0.0001 O   0  0  0  0  0  0  0  0  0  0  0  0
    1.7468    1.3684    0.0001 N   0  0  0  0  0  0  0  0  0  0  0  0
    0.6417    0.6579    0.0000 C   0  0  0  0  0  0  0  0  0  0  0  0
    0.8165   -0.6527    0.0000 C   0  0  0  0  0  0  0  0  0  0  0  0
   -0.3305   -1.5188   -0.0000 C   0  0  0  0  0  0  0  0  0  0  0  0
   -0.1145   -2.8816   -0.0000 C   0  0  0  0  0  0  0  0  0  0  0  0
   -1.2154   -3.7259   -0.0000 C   0  0  0  0  0  0  0  0  0  0  0  0
   -2.5044   -3.1883   -0.0000 C   0  0  0  0  0  0  0  0  0  0  0  0
   -2.6930   -1.8161   -0.0000 C   0  0  0  0  0  0  0  0  0  0  0  0
   -3.9224   -1.2810   -0.0000 F   0  0  0  0  0  0  0  0  0  0  0  0
   -1.6221   -0.9733   -0.0000 C   0  0  0  0  0  0  0  0  0  0  0  0
    4.1849    1.4232   -0.0000 H   0  0  0  0  0  0  0  0  0  0  0  0
    5.1195    3.2578   -0.0000 H   0  0  0  0  0  0  0  0  0  0  0  0
    5.2567    1.9650    0.0000 H   0  0  0  0  0  0  0  0  0  0  0  0
    2.6080    0.8533    0.0000 H   0  0  0  0  0  0  0  0  0  0  0  0
   -0.2721    1.2350    0.0000 H   0  0  0  0  0  0  0  0  0  0  0  0
    1.8137   -1.1029    0.0000 H   0  0  0  0  0  0  0  0  0  0  0  0
    0.8941   -3.2916   -0.0000 H   0  0  0  0  0  0  0  0  0  0  0  0
   -1.0622   -4.7972    0.0000 H   0  0  0  0  0  0  0  0  0  0  0  0
   -3.3734   -3.8290    0.0000 H   0  0  0  0  0  0  0  0  0  0  0  0
   -1.8289    0.0887   -0.0000 H   0  0  0  0  0  0  0  0  0  0  0  0
  1  2  1  0  0  0  0
  1 15  1  0  0  0  0
  1 16  1  0  0  0  0
  1 17  1  0  0  0  0
  2  3  1  0  0  0  0
  3  4  2  0  0  0  0
  3  5  1  0  0  0  0
  5  6  1  0  0  0  0
  5 18  1  0  0  0  0
  6  7  2  3  0  0  0
  6 19  1  0  0  0  0
  7  8  1  0  0  0  0
  7 20  1  0  0  0  0
  8 14  2  0  0  0  0
  8  9  1  0  0  0  0
  9 10  2  0  0  0  0
  9 21  1  0  0  0  0
 10 11  1  0  0  0  0
 10 22  1  0  0  0  0
 11 12  2  0  0  0  0
 11 23  1  0  0  0  0
 12 13  1  0  0  0  0
 12 14  1  0  0  0  0
 14 24  1  0  0  0  0
M  END
$$$$
