
 OpenBabel03202621342D

 21 21  0  0  1  0  0  0  0  0999 V2000
    2.5981   -0.5000    0.0000 C   0  0  0  0  0  0  0  0  0  0  0  0
    1.7321    0.0000    0.0000 C   0  0  1  0  0  0  0  0  0  0  0  0
    1.4679    1.2337   -1.4443 S   0  0  0  0  0  0  0  0  0  0  0  0
    0.7669    2.5530   -0.5206 C   0  0  0  0  0  0  0  0  0  0  0  0
    1.3879    3.1409    0.3493 O   0  0  0  0  0  0  0  0  0  0  0  0
    0.4506   -0.9240    0.0302 C   0  0  0  0  0  0  0  0  0  0  0  0
    0.5278   -2.3263   -0.1228 C   0  0  0  0  0  0  0  0  0  0  0  0
   -0.6222   -3.1214   -0.1168 C   0  0  0  0  0  0  0  0  0  0  0  0
   -1.8738   -2.5332    0.0339 C   0  0  0  0  0  0  0  0  0  0  0  0
   -3.2912   -3.5093    0.0088 Cl  0  0  0  0  0  0  0  0  0  0  0  0
   -1.9816   -1.1595    0.2128 C   0  0  0  0  0  0  0  0  0  0  0  0
   -0.8285   -0.3671    0.2324 C   0  0  0  0  0  0  0  0  0  0  0  0
    2.6433   -0.8931   -1.0469 H   0  0  0  0  0  0  0  0  0  0  0  0
    3.3225    0.3424    0.1297 H   0  0  0  0  0  0  0  0  0  0  0  0
    3.5247   -1.0350    0.0000 H   0  0  0  0  0  0  0  0  0  0  0  0
    1.5582    0.5928    0.9126 H   0  0  0  0  0  0  0  0  0  0  0  0
   -0.2728    2.8131   -0.7751 H   0  0  0  0  0  0  0  0  0  0  0  0
    1.4890   -2.8259   -0.2521 H   0  0  0  0  0  0  0  0  0  0  0  0
   -0.5333   -4.2021   -0.2399 H   0  0  0  0  0  0  0  0  0  0  0  0
   -2.9549   -0.6982    0.3410 H   0  0  0  0  0  0  0  0  0  0  0  0
   -0.9555    0.6970    0.4081 H   0  0  0  0  0  0  0  0  0  0  0  0
  1 13  1  0  0  0  0
  1 14  1  0  0  0  0
  1 15  1  0  0  0  0
  2  1  1  0  0  0  0
  2  3  1  0  0  0  0
  2  6  1  0  0  0  0
  2 16  1  1  0  0  0
  3  4  1  0  0  0  0
  4  5  2  0  0  0  0
  4 17  1  0  0  0  0
  6 12  2  0  0  0  0
  6  7  1  0  0  0  0
  7  8  2  0  0  0  0
  7 18  1  0  0  0  0
  8  9  1  0  0  0  0
  8 19  1  0  0  0  0
  9 10  1  0  0  0  0
  9 11  2  0  0  0  0
 11 12  1  0  0  0  0
 11 20  1  0  0  0  0
 12 21  1  0  0  0  0
M  END
$$$$
