
 OpenBabel03202621322D

 21 21  0  0  0  0  0  0  0  0999 V2000
    3.9895   -2.2862    0.0000 C   0  0  0  0  0  0  0  0  0  0  0  0
    4.1974   -1.3080    0.0000 S   0  0  0  0  0  0  0  0  0  0  0  0
    2.9400   -0.1176   -0.0648 C   0  0  0  0  0  0  0  0  0  0  0  0
    3.2180    1.0713   -0.1355 O   0  0  0  0  0  0  0  0  0  0  0  0
    1.5331   -0.6430   -0.0157 C   0  0  0  0  0  0  0  0  0  0  0  0
    0.4979    0.4684   -0.1399 C   0  0  0  0  0  0  0  0  0  0  0  0
   -0.8967   -0.0605   -0.1686 C   0  0  0  0  0  0  0  0  0  0  0  0
   -1.3323   -1.4070   -0.2588 C   0  0  0  0  0  0  0  0  0  0  0  0
   -2.6606   -1.5214   -0.2617 N   0  0  0  0  0  0  0  0  0  0  0  0
   -3.0845   -0.2526   -0.1779 N   0  0  0  0  0  0  0  0  0  0  0  0
   -2.0707    0.6568   -0.1191 C   0  0  0  0  0  0  0  0  0  0  0  0
    3.6284   -2.3994    1.0422 H   0  0  0  0  0  0  0  0  0  0  0  0
    5.0228   -2.6804   -0.0376 H   0  0  0  0  0  0  0  0  0  0  0  0
    3.7671   -3.3328    0.0000 H   0  0  0  0  0  0  0  0  0  0  0  0
    1.4135   -1.3554   -0.8406 H   0  0  0  0  0  0  0  0  0  0  0  0
    1.3928   -1.1712    0.9352 H   0  0  0  0  0  0  0  0  0  0  0  0
    0.6775    1.0512   -1.0524 H   0  0  0  0  0  0  0  0  0  0  0  0
    0.6021    1.1668    0.7012 H   0  0  0  0  0  0  0  0  0  0  0  0
   -0.7381   -2.3097   -0.3211 H   0  0  0  0  0  0  0  0  0  0  0  0
   -4.0852   -0.0838   -0.1663 H   0  0  0  0  0  0  0  0  0  0  0  0
   -2.2712    1.7168   -0.0500 H   0  0  0  0  0  0  0  0  0  0  0  0
  1  2  1  0  0  0  0
  1 12  1  0  0  0  0
  1 13  1  0  0  0  0
  1 14  1  0  0  0  0
  2  3  1  0  0  0  0
  3  4  2  0  0  0  0
  3  5  1  0  0  0  0
  5  6  1  0  0  0  0
  5 15  1  0  0  0  0
  5 16  1  0  0  0  0
  6  7  1  0  0  0  0
  6 17  1  0  0  0  0
  6 18  1  0  0  0  0
  7 11  2  0  0  0  0
  7  8  1  0  0  0  0
  8  9  2  0  0  0  0
  8 19  1  0  0  0  0
  9 10  1  0  0  0  0
 10 11  1  0  0  0  0
 10 20  1  0  0  0  0
 11 21  1  0  0  0  0
M  END
$$$$
