
 OpenBabel03202621402D

 15 15  0  0  0  0  0  0  0  0999 V2000
    2.2953   -1.9260    0.0000 C   0  0  0  0  0  0  0  0  0  0  0  0
    2.5032   -0.9479    0.0000 S   0  0  0  0  0  0  0  0  0  0  0  0
    1.1419    0.1956   -0.0000 C   0  0  0  0  0  0  0  0  0  0  0  0
    1.4591    1.3859   -0.0000 O   0  0  0  0  0  0  0  0  0  0  0  0
   -0.2786   -0.2550   -0.0000 C   0  0  0  0  0  0  0  0  0  0  0  0
   -0.9315   -1.4881   -0.0000 C   0  0  0  0  0  0  0  0  0  0  0  0
   -2.3528   -1.4063   -0.0000 C   0  0  0  0  0  0  0  0  0  0  0  0
   -2.7813   -0.1046   -0.0000 C   0  0  0  0  0  0  0  0  0  0  0  0
   -1.4831    0.9984   -0.0000 S   0  0  0  0  0  0  0  0  0  0  0  0
    1.2542   -2.1109    0.0000 H   0  0  0  0  0  0  0  0  0  0  0  0
    3.2605   -2.4411    0.0000 H   0  0  0  0  0  0  0  0  0  0  0  0
    2.0728   -2.9726    0.0000 H   0  0  0  0  0  0  0  0  0  0  0  0
   -0.4847   -2.4709   -0.0000 H   0  0  0  0  0  0  0  0  0  0  0  0
   -3.0107   -2.2667    0.0000 H   0  0  0  0  0  0  0  0  0  0  0  0
   -3.8060    0.2462    0.0000 H   0  0  0  0  0  0  0  0  0  0  0  0
  1  2  1  0  0  0  0
  1 10  1  0  0  0  0
  1 11  1  0  0  0  0
  1 12  1  0  0  0  0
  2  3  1  0  0  0  0
  3  4  2  0  0  0  0
  3  5  1  0  0  0  0
  5  9  1  0  0  0  0
  5  6  2  0  0  0  0
  6  7  1  0  0  0  0
  6 13  1  0  0  0  0
  7  8  2  0  0  0  0
  7 14  1  0  0  0  0
  8  9  1  0  0  0  0
  8 15  1  0  0  0  0
M  END
$$$$
