
 OpenBabel03202621362D

 15 14  0  0  0  0  0  0  0  0999 V2000
    2.5981    0.5000    0.0000 C   0  0  0  0  0  0  0  0  0  0  0  0
    2.5981    1.5000    0.0000 S   0  0  0  0  0  0  0  0  0  0  0  0
    1.6534    2.6946   -0.0405 C   0  0  0  0  0  0  0  0  0  0  0  0
    1.7041    3.8845    0.0788 O   0  0  0  0  0  0  0  0  0  0  0  0
    0.8660    1.5000    0.0000 C   0  0  0  0  0  0  0  0  0  0  0  0
    0.0000    2.0000    0.0000 C   0  0  0  0  0  0  0  0  0  0  0  0
   -0.8660    2.5000    0.0000 N   0  0  0  0  0  0  0  0  0  0  0  0
    0.2933    0.1524   -0.0020 C   0  0  0  0  0  0  0  0  0  0  0  0
   -1.0219   -0.3185    0.2050 N   0  0  0  0  0  0  0  0  0  0  0  0
    2.8343    0.3169    1.0763 H   0  0  0  0  0  0  0  0  0  0  0  0
    3.5506    0.3289   -0.5434 H   0  0  0  0  0  0  0  0  0  0  0  0
    2.5981   -0.5700    0.0000 H   0  0  0  0  0  0  0  0  0  0  0  0
    0.8214   -0.7839   -0.1471 H   0  0  0  0  0  0  0  0  0  0  0  0
   -1.7583    0.3897    0.1150 H   0  0  0  0  0  0  0  0  0  0  0  0
   -1.2495   -1.1833   -0.2809 H   0  0  0  0  0  0  0  0  0  0  0  0
  1  2  1  0  0  0  0
  1 10  1  0  0  0  0
  1 11  1  0  0  0  0
  1 12  1  0  0  0  0
  2  3  1  0  0  0  0
  3  4  2  0  0  0  0
  3  5  1  0  0  0  0
  5  6  1  0  0  0  0
  5  8  2  3  0  0  0
  6  7  3  0  0  0  0
  8  9  1  0  0  0  0
  8 13  1  0  0  0  0
  9 14  1  0  0  0  0
  9 15  1  0  0  0  0
M  END
$$$$
