
 OpenBabel03202621282D

 15 15  0  0  0  0  0  0  0  0999 V2000
    1.7601   -0.2788    0.0000 C   0  0  0  0  0  0  0  0  0  0  0  0
    0.8090   -0.5878    0.0000 C   0  0  0  0  0  0  0  0  0  0  0  0
    0.5000   -1.5388    0.0000 C   0  0  0  0  0  0  0  0  0  0  0  0
   -0.5000   -1.5388    0.0000 N   0  0  0  0  0  0  0  0  0  0  0  0
   -1.0878   -2.3479    0.0000 C   0  0  0  0  0  0  0  0  0  0  0  0
   -0.6810   -3.2614    0.0000 C   0  0  0  0  0  0  0  0  0  0  0  0
   -1.2688   -4.0704    0.0000 C   0  0  0  0  0  0  0  0  0  0  0  0
   -0.8621   -4.9840    0.0000 C   0  0  0  0  0  0  0  0  0  0  0  0
   -1.4499   -5.7930    0.0000 C   0  0  0  0  0  0  0  0  0  0  0  0
   -1.0431   -6.7065    0.0000 C   0  0  0  0  0  0  0  0  0  0  0  0
   -1.6309   -7.5155    0.0000 C   0  0  0  0  0  0  0  0  0  0  0  0
   -2.6255   -7.4110    0.0000 O   0  0  0  0  0  0  0  0  0  0  0  0
   -1.2242   -8.4291    0.0000 O   0  0  0  0  0  0  0  0  0  0  0  0
   -0.8090   -0.5878    0.0000 N   0  0  0  0  0  0  0  0  0  0  0  0
    0.0000   -0.0000    0.0000 N   0  0  0  0  0  0  0  0  0  0  0  0
  1  2  1  0  0  0  0
  2 15  1  0  0  0  0
  2  3  2  0  0  0  0
  3  4  1  0  0  0  0
  4  5  1  0  0  0  0
  4 14  1  0  0  0  0
  5  6  1  0  0  0  0
  6  7  1  0  0  0  0
  7  8  1  0  0  0  0
  8  9  1  0  0  0  0
  9 10  1  0  0  0  0
 10 11  1  0  0  0  0
 11 12  2  0  0  0  0
 11 13  1  0  0  0  0
 14 15  2  0  0  0  0
M  END
$$$$
