
 OpenBabel03202621342D

 17 17  0  0  0  0  0  0  0  0999 V2000
    1.0858   -2.0852    0.0001 N   0  0  0  0  0  0  0  0  0  0  0  0
    0.0150   -1.2087   -0.0000 C   0  0  0  0  0  0  0  0  0  0  0  0
   -1.2579   -1.8309   -0.0000 C   0  0  0  0  0  0  0  0  0  0  0  0
   -2.4522   -1.1087   -0.0000 C   0  0  0  0  0  0  0  0  0  0  0  0
   -3.9359   -1.9906    0.0000 Cl  0  0  0  0  0  0  0  0  0  0  0  0
   -2.4007    0.2753   -0.0000 C   0  0  0  0  0  0  0  0  0  0  0  0
   -3.8181    1.2608    0.0000 Cl  0  0  0  0  0  0  0  0  0  0  0  0
   -1.1559    0.9110   -0.0000 C   0  0  0  0  0  0  0  0  0  0  0  0
    0.0750    0.2002   -0.0000 C   0  0  0  0  0  0  0  0  0  0  0  0
    1.4386    1.3571    0.0000 S   0  0  0  0  0  0  0  0  0  0  0  0
    3.0019    0.6135    0.0000 C   0  0  0  0  0  0  0  0  0  0  0  0
    4.0221    1.2977   -0.0000 O   0  0  0  0  0  0  0  0  0  0  0  0
    0.9067   -3.0836   -0.0001 H   0  0  0  0  0  0  0  0  0  0  0  0
    2.0515   -1.8393   -0.0000 H   0  0  0  0  0  0  0  0  0  0  0  0
   -1.3182   -2.9188    0.0000 H   0  0  0  0  0  0  0  0  0  0  0  0
   -1.1510    2.0030   -0.0000 H   0  0  0  0  0  0  0  0  0  0  0  0
    3.1118   -0.4665    0.0000 H   0  0  0  0  0  0  0  0  0  0  0  0
  1  2  1  0  0  0  0
  1 13  1  0  0  0  0
  1 14  1  0  0  0  0
  2  9  2  0  0  0  0
  2  3  1  0  0  0  0
  3  4  2  0  0  0  0
  3 15  1  0  0  0  0
  4  5  1  0  0  0  0
  4  6  1  0  0  0  0
  6  7  1  0  0  0  0
  6  8  2  0  0  0  0
  8  9  1  0  0  0  0
  8 16  1  0  0  0  0
  9 10  1  0  0  0  0
 10 11  1  0  0  0  0
 11 12  2  0  0  0  0
 11 17  1  0  0  0  0
M  END
$$$$
