
 OpenBabel03202621282D

 19 20  0  0  1  0  0  0  0  0999 V2000
    2.7147   -3.7112    0.0000 C   0  0  0  0  0  0  0  0  0  0  0  0
    3.3025   -2.9022    0.0000 S   0  0  0  0  0  0  0  0  0  0  0  0
    2.8958   -1.9886    0.0000 C   0  0  2  0  0  0  0  0  0  0  0  0
    3.4836   -1.1796    0.0000 C   0  0  0  0  0  0  0  0  0  0  0  0
    3.0768   -0.2661    0.0000 O   0  0  0  0  0  0  0  0  0  0  0  0
    1.9013   -1.8841    0.0000 C   0  0  0  0  0  0  0  0  0  0  0  0
    1.4945   -0.9706    0.0000 C   0  0  0  0  0  0  0  0  0  0  0  0
    0.5000   -0.8660    0.0000 N   0  0  0  0  0  0  0  0  0  0  0  0
   -0.1691   -1.6092    0.0000 C   0  0  0  0  0  0  0  0  0  0  0  0
   -1.0827   -1.2024    0.0000 C   0  0  0  0  0  0  0  0  0  0  0  0
   -1.9487   -1.7024    0.0000 C   0  0  0  0  0  0  0  0  0  0  0  0
   -1.9487   -2.7024    0.0000 C   0  0  0  0  0  0  0  0  0  0  0  0
   -2.8147   -3.2024    0.0000 C   0  0  0  0  0  0  0  0  0  0  0  0
   -3.6808   -2.7024    0.0000 C   0  0  0  0  0  0  0  0  0  0  0  0
   -3.6808   -1.7024    0.0000 C   0  0  0  0  0  0  0  0  0  0  0  0
   -4.5468   -1.2024    0.0000 C   0  0  0  0  0  0  0  0  0  0  0  0
   -2.8147   -1.2024    0.0000 C   0  0  0  0  0  0  0  0  0  0  0  0
   -0.9781   -0.2079    0.0000 N   0  0  0  0  0  0  0  0  0  0  0  0
    0.0000    0.0000    0.0000 N   0  0  0  0  0  0  0  0  0  0  0  0
  1  2  1  0  0  0  0
  2  3  1  0  0  0  0
  3  4  1  1  0  0  0
  3  6  1  0  0  0  0
  4  5  1  0  0  0  0
  6  7  1  0  0  0  0
  7  8  1  0  0  0  0
  8 19  1  0  0  0  0
  8  9  1  0  0  0  0
  9 10  2  0  0  0  0
 10 11  1  0  0  0  0
 10 18  1  0  0  0  0
 11 17  2  0  0  0  0
 11 12  1  0  0  0  0
 12 13  2  0  0  0  0
 13 14  1  0  0  0  0
 14 15  2  0  0  0  0
 15 16  1  0  0  0  0
 15 17  1  0  0  0  0
 18 19  2  0  0  0  0
M  END
$$$$
