
 OpenBabel03202621382D

 34 35  0  0  0  0  0  0  0  0999 V2000
    6.1667    2.4945    0.0000 C   0  0  0  0  0  0  0  0  0  0  0  0
    5.3007    2.9945    0.0000 O   0  0  0  0  0  0  0  0  0  0  0  0
    4.5760    2.2180    0.9078 C   0  0  0  0  0  0  0  0  0  0  0  0
    3.9005    2.7083    1.7994 O   0  0  0  0  0  0  0  0  0  0  0  0
    4.5633    0.7358    0.6049 C   0  0  0  0  0  0  0  0  0  0  0  0
    5.0595   -0.1637    1.5541 C   0  0  0  0  0  0  0  0  0  0  0  0
    5.0681   -1.5293    1.2604 C   0  0  0  0  0  0  0  0  0  0  0  0
    4.5292   -1.9944    0.0574 C   0  0  0  0  0  0  0  0  0  0  0  0
    4.0332   -1.0956   -0.8891 C   0  0  0  0  0  0  0  0  0  0  0  0
    4.1030    0.2740   -0.6410 C   0  0  0  0  0  0  0  0  0  0  0  0
    3.7682    1.1782   -1.6918 N   0  0  0  0  0  0  0  0  0  0  0  0
    2.4202    1.3153   -1.9489 C   0  0  0  0  0  0  0  0  0  0  0  0
    1.9043    0.9634   -3.0108 O   0  0  0  0  0  0  0  0  0  0  0  0
    1.6744    2.0436   -0.8622 C   0  0  0  0  0  0  0  0  0  0  0  0
    0.5529    1.2709   -0.4353 N   0  0  0  0  0  0  0  0  0  0  0  0
   -0.7238    1.5998   -0.6720 C   0  0  0  0  0  0  0  0  0  0  0  0
   -1.4781    0.6581    0.0000 C   0  0  0  0  0  0  0  0  0  0  0  0
   -2.4727    0.7626    0.0000 C   0  0  0  0  0  0  0  0  0  0  0  0
   -0.5997   -0.2112    0.6057 N   0  0  0  0  0  0  0  0  0  0  0  0
    0.6463    0.1877    0.3471 N   0  0  0  0  0  0  0  0  0  0  0  0
    6.3556    2.4578   -1.0944 H   0  0  0  0  0  0  0  0  0  0  0  0
    6.8333    3.2880    0.4030 H   0  0  0  0  0  0  0  0  0  0  0  0
    7.0933    1.9595    0.0000 H   0  0  0  0  0  0  0  0  0  0  0  0
    5.4646    0.1909    2.4981 H   0  0  0  0  0  0  0  0  0  0  0  0
    5.4867   -2.2382    1.9719 H   0  0  0  0  0  0  0  0  0  0  0  0
    4.5072   -3.0622   -0.1516 H   0  0  0  0  0  0  0  0  0  0  0  0
    3.6335   -1.4695   -1.8305 H   0  0  0  0  0  0  0  0  0  0  0  0
    4.1474    2.1034   -1.5085 H   0  0  0  0  0  0  0  0  0  0  0  0
    1.3329    3.0098   -1.2605 H   0  0  0  0  0  0  0  0  0  0  0  0
    2.2620    2.2682    0.0196 H   0  0  0  0  0  0  0  0  0  0  0  0
   -1.0070    2.4704   -1.2502 H   0  0  0  0  0  0  0  0  0  0  0  0
   -2.6468    0.8168    1.1013 H   0  0  0  0  0  0  0  0  0  0  0  0
   -2.7554   -0.2532   -0.3652 H   0  0  0  0  0  0  0  0  0  0  0  0
   -3.5368    0.8744    0.0000 H   0  0  0  0  0  0  0  0  0  0  0  0
  1  2  1  0  0  0  0
  1 21  1  0  0  0  0
  1 22  1  0  0  0  0
  1 23  1  0  0  0  0
  2  3  1  0  0  0  0
  3  4  2  0  0  0  0
  3  5  1  0  0  0  0
  5 10  2  0  0  0  0
  5  6  1  0  0  0  0
  6  7  2  0  0  0  0
  6 24  1  0  0  0  0
  7  8  1  0  0  0  0
  7 25  1  0  0  0  0
  8  9  2  0  0  0  0
  8 26  1  0  0  0  0
  9 10  1  0  0  0  0
  9 27  1  0  0  0  0
 10 11  1  0  0  0  0
 11 12  1  0  0  0  0
 11 28  1  0  0  0  0
 12 13  2  0  0  0  0
 12 14  1  0  0  0  0
 14 15  1  0  0  0  0
 14 29  1  0  0  0  0
 14 30  1  0  0  0  0
 15 20  1  0  0  0  0
 15 16  1  0  0  0  0
 16 17  2  0  0  0  0
 16 31  1  0  0  0  0
 17 18  1  0  0  0  0
 17 19  1  0  0  0  0
 18 32  1  0  0  0  0
 18 33  1  0  0  0  0
 18 34  1  0  0  0  0
 19 20  2  0  0  0  0
M  END
$$$$
