
 OpenBabel03202621402D

 33 34  0  0  1  0  0  0  0  0999 V2000
    5.1371   -1.5517    0.0000 C   0  0  0  0  0  0  0  0  0  0  0  0
    4.1712   -1.2929    0.0000 C   0  0  0  0  0  0  0  0  0  0  0  0
    3.4641   -2.0000    0.0000 C   0  0  1  0  0  0  0  0  0  0  0  0
    4.2872   -2.5679    0.0000 C   0  0  0  0  0  0  0  0  0  0  0  0
    2.5981   -2.5000    0.0000 C   0  0  0  0  0  0  0  0  0  0  0  0
    2.5981   -1.5000    0.0000 C   0  0  1  0  0  0  0  0  0  0  0  0
    2.5981   -0.5000    0.0000 N   0  0  0  0  0  0  0  0  0  0  0  0
    1.7321   -1.0000    0.0000 C   0  0  0  0  0  0  0  0  0  0  0  0
    0.9850   -0.9256   -1.0928 O   0  0  0  0  0  0  0  0  0  0  0  0
    0.8563   -0.9366    1.2563 O   0  0  0  0  0  0  0  0  0  0  0  0
   -0.4813   -0.5235    0.9401 C   0  0  0  0  0  0  0  0  0  0  0  0
   -1.4373   -1.4388    0.6808 C   0  0  0  0  0  0  0  0  0  0  0  0
   -2.7256   -1.1943    0.2700 O   0  0  0  0  0  0  0  0  0  0  0  0
   -3.0872    0.1858    0.1198 C   0  0  0  0  0  0  0  0  0  0  0  0
   -2.0155    1.1975    0.3586 C   0  0  0  0  0  0  0  0  0  0  0  0
   -0.7747    0.9077    0.7841 C   0  0  0  0  0  0  0  0  0  0  0  0
    0.1933    1.6780    1.0597 O   0  5  0  0  0  0  0  0  0  0  0  0
    5.4882   -1.4661   -1.1447 H   0  0  0  0  0  0  0  0  0  0  0  0
    5.6957   -0.6209    0.4062 H   0  0  0  0  0  0  0  0  0  0  0  0
    6.1706   -1.8286    0.0000 H   0  0  0  0  0  0  0  0  0  0  0  0
    4.2874   -0.3959   -0.7885 H   0  0  0  0  0  0  0  0  0  0  0  0
    4.2163   -0.7091    1.0676 H   0  0  0  0  0  0  0  0  0  0  0  0
    4.1807   -3.3045   -0.9365 H   0  0  0  0  0  0  0  0  0  0  0  0
    4.2024   -3.2597    0.9744 H   0  0  0  0  0  0  0  0  0  0  0  0
    5.1679   -3.1756    0.0000 H   0  0  0  0  0  0  0  0  0  0  0  0
    2.1881   -3.0906    0.8511 H   0  0  0  0  0  0  0  0  0  0  0  0
    2.1825   -3.0842   -0.8544 H   0  0  0  0  0  0  0  0  0  0  0  0
    2.6339    0.2160   -0.8361 H   0  0  0  0  0  0  0  0  0  0  0  0
    2.6727    0.2528    0.7974 H   0  0  0  0  0  0  0  0  0  0  0  0
   -1.2572   -2.5061    0.7218 H   0  0  0  0  0  0  0  0  0  0  0  0
   -3.5033    0.3100   -0.8888 H   0  0  0  0  0  0  0  0  0  0  0  0
   -3.9086    0.3780    0.8216 H   0  0  0  0  0  0  0  0  0  0  0  0
   -2.2727    2.2417    0.1725 H   0  0  0  0  0  0  0  0  0  0  0  0
  1  2  1  0  0  0  0
  1 18  1  0  0  0  0
  1 19  1  0  0  0  0
  1 20  1  0  0  0  0
  2 21  1  0  0  0  0
  2 22  1  0  0  0  0
  3  2  1  1  0  0  0
  3  6  1  0  0  0  0
  3  4  1  0  0  0  0
  3  5  1  0  0  0  0
  4 23  1  0  0  0  0
  4 24  1  0  0  0  0
  4 25  1  0  0  0  0
  5  6  1  0  0  0  0
  5 26  1  0  0  0  0
  5 27  1  0  0  0  0
  6  7  1  0  0  0  0
  6  8  1  6  0  0  0
  7 28  1  0  0  0  0
  7 29  1  0  0  0  0
  8  9  2  0  0  0  0
  8 10  1  0  0  0  0
 10 11  1  0  0  0  0
 11 16  1  0  0  0  0
 11 12  2  0  0  0  0
 12 13  1  0  0  0  0
 12 30  1  0  0  0  0
 13 14  1  0  0  0  0
 14 15  1  0  0  0  0
 14 31  1  0  0  0  0
 14 32  1  0  0  0  0
 15 16  2  0  0  0  0
 15 33  1  0  0  0  0
 16 17  1  0  0  0  0
M  CHG  1  17  -1
M  END
$$$$
