
 OpenBabel03202621332D

 33 34  0  0  0  0  0  0  0  0999 V2000
   -0.2788   -1.7601    0.0000 C   0  0  0  0  0  0  0  0  0  0  0  0
   -0.5878   -0.8090    0.0000 C   0  0  0  0  0  0  0  0  0  0  0  0
   -1.8242   -0.1906    0.0724 C   0  0  0  0  0  0  0  0  0  0  0  0
   -1.5951    1.1528    0.0641 N   0  0  0  0  0  0  0  0  0  0  0  0
   -2.5552    2.2430    0.0654 C   0  0  0  0  0  0  0  0  0  0  0  0
   -3.9742    1.7144   -0.0536 C   0  0  0  0  0  0  0  0  0  0  0  0
   -5.0884    2.7444   -0.0616 C   0  0  0  0  0  0  0  0  0  0  0  0
   -6.3667    1.9867    0.2086 C   0  0  0  0  0  0  0  0  0  0  0  0
   -7.0714    2.1485    1.1959 O   0  0  0  0  0  0  0  0  0  0  0  0
   -6.5404    1.0148   -0.7398 O   0  0  0  0  0  0  0  0  0  0  0  0
   -7.4099    0.0176   -0.3038 N   0  0  0  0  0  0  0  0  0  0  0  0
   -6.9332   -1.2118    0.0193 C   0  0  0  0  0  0  0  0  0  0  0  0
   -5.7678   -1.5641    0.1128 O   0  0  0  0  0  0  0  0  0  0  0  0
   -8.1222   -2.1289    0.1427 C   0  0  0  0  0  0  0  0  0  0  0  0
   -9.3241   -1.2178   -0.0858 C   0  0  0  0  0  0  0  0  0  0  0  0
   -8.7190    0.0374   -0.6389 C   0  0  0  0  0  0  0  0  0  0  0  0
   -9.3227    0.8814   -1.2803 O   0  0  0  0  0  0  0  0  0  0  0  0
   -0.2877    1.4108    0.0482 N   0  0  0  0  0  0  0  0  0  0  0  0
    0.3349    0.2426    0.0329 N   0  0  0  0  0  0  0  0  0  0  0  0
   -1.2095   -2.2952   -0.3141 H   0  0  0  0  0  0  0  0  0  0  0  0
    0.3735   -1.7463   -0.9094 H   0  0  0  0  0  0  0  0  0  0  0  0
    0.0518   -2.7777    0.0000 H   0  0  0  0  0  0  0  0  0  0  0  0
   -2.8152   -0.6214    0.1181 H   0  0  0  0  0  0  0  0  0  0  0  0
   -2.4127    2.7948    1.0015 H   0  0  0  0  0  0  0  0  0  0  0  0
   -2.3052    2.8976   -0.7773 H   0  0  0  0  0  0  0  0  0  0  0  0
   -4.0471    1.1175   -0.9741 H   0  0  0  0  0  0  0  0  0  0  0  0
   -4.1549    1.0241    0.7814 H   0  0  0  0  0  0  0  0  0  0  0  0
   -4.9460    3.4842    0.7357 H   0  0  0  0  0  0  0  0  0  0  0  0
   -5.1606    3.2750   -1.0147 H   0  0  0  0  0  0  0  0  0  0  0  0
   -8.0634   -2.8926   -0.6393 H   0  0  0  0  0  0  0  0  0  0  0  0
   -8.1533   -2.6088    1.1245 H   0  0  0  0  0  0  0  0  0  0  0  0
  -10.0333   -1.6547   -0.7942 H   0  0  0  0  0  0  0  0  0  0  0  0
   -9.8325   -0.9840    0.8551 H   0  0  0  0  0  0  0  0  0  0  0  0
  1  2  1  0  0  0  0
  1 20  1  0  0  0  0
  1 21  1  0  0  0  0
  1 22  1  0  0  0  0
  2 19  1  0  0  0  0
  2  3  2  0  0  0  0
  3  4  1  0  0  0  0
  3 23  1  0  0  0  0
  4  5  1  0  0  0  0
  4 18  1  0  0  0  0
  5  6  1  0  0  0  0
  5 24  1  0  0  0  0
  5 25  1  0  0  0  0
  6  7  1  0  0  0  0
  6 26  1  0  0  0  0
  6 27  1  0  0  0  0
  7  8  1  0  0  0  0
  7 28  1  0  0  0  0
  7 29  1  0  0  0  0
  8  9  2  0  0  0  0
  8 10  1  0  0  0  0
 10 11  1  0  0  0  0
 11 16  1  0  0  0  0
 11 12  1  0  0  0  0
 12 13  2  0  0  0  0
 12 14  1  0  0  0  0
 14 15  1  0  0  0  0
 14 30  1  0  0  0  0
 14 31  1  0  0  0  0
 15 16  1  0  0  0  0
 15 32  1  0  0  0  0
 15 33  1  0  0  0  0
 16 17  2  0  0  0  0
 18 19  2  0  0  0  0
M  END
$$$$
