
 OpenBabel03202621302D

 19 19  0  0  1  0  0  0  0  0999 V2000
   -0.1280   -2.6736    0.0000 C   0  0  0  0  0  0  0  0  0  0  0  0
    0.2788   -1.7601    0.0000 C   0  0  1  0  0  0  0  0  0  0  0  0
    1.5854   -0.9223   -0.0000 N   0  0  0  0  0  0  0  0  0  0  0  0
   -0.6193   -0.5616    0.0000 C   0  0  0  0  0  0  0  0  0  0  0  0
   -1.9600   -0.6538    0.0000 N   0  0  0  0  0  0  0  0  0  0  0  0
   -2.3370    0.6128    0.0000 N   0  0  0  0  0  0  0  0  0  0  0  0
   -1.2669    1.4538    0.0000 C   0  0  0  0  0  0  0  0  0  0  0  0
   -1.2656    2.7672   -0.0000 O   0  0  0  0  0  0  0  0  0  0  0  0
   -2.4360    3.4128   -0.0000 C   0  0  0  0  0  0  0  0  0  0  0  0
   -2.5505    4.6227   -0.0000 O   0  0  0  0  0  0  0  0  0  0  0  0
   -0.1660    0.7500    0.0000 N   0  0  0  0  0  0  0  0  0  0  0  0
   -1.2254   -2.6360   -0.0000 H   0  0  0  0  0  0  0  0  0  0  0  0
    0.5970   -3.5536   -0.0000 H   0  0  0  0  0  0  0  0  0  0  0  0
   -0.5633   -3.6511    0.0000 H   0  0  0  0  0  0  0  0  0  0  0  0
    1.2552   -2.2121    0.0000 H   0  0  0  0  0  0  0  0  0  0  0  0
    2.5372   -1.2901    0.0000 H   0  0  0  0  0  0  0  0  0  0  0  0
    1.4856    0.0901    0.0000 H   0  0  0  0  0  0  0  0  0  0  0  0
   -3.3320    0.7943   -0.0000 H   0  0  0  0  0  0  0  0  0  0  0  0
   -3.3175    2.7587   -0.0000 H   0  0  0  0  0  0  0  0  0  0  0  0
  1 12  1  0  0  0  0
  1 13  1  0  0  0  0
  1 14  1  0  0  0  0
  2  1  1  0  0  0  0
  2  3  1  0  0  0  0
  2  4  1  0  0  0  0
  2 15  1  1  0  0  0
  3 16  1  0  0  0  0
  3 17  1  0  0  0  0
  4 11  1  0  0  0  0
  4  5  2  0  0  0  0
  5  6  1  0  0  0  0
  6  7  1  0  0  0  0
  6 18  1  0  0  0  0
  7  8  1  0  0  0  0
  7 11  2  0  0  0  0
  8  9  1  0  0  0  0
  9 10  2  0  0  0  0
  9 19  1  0  0  0  0
M  END
$$$$
