
 OpenBabel03202621372D

 15 15  0  0  0  0  0  0  0  0999 V2000
   -3.2502   -2.5369    0.0000 O   0  0  0  0  0  0  0  0  0  0  0  0
   -2.1777   -3.1264    0.0000 C   0  0  0  0  0  0  0  0  0  0  0  0
   -0.5951   -2.3864   -0.0000 S   0  0  0  0  0  0  0  0  0  0  0  0
   -0.7578   -0.6090   -0.0000 C   0  0  0  0  0  0  0  0  0  0  0  0
   -1.9620    0.1068   -0.0000 C   0  0  0  0  0  0  0  0  0  0  0  0
   -1.9793    1.5089   -0.0000 C   0  0  0  0  0  0  0  0  0  0  0  0
   -0.7876    2.2248   -0.0000 C   0  0  0  0  0  0  0  0  0  0  0  0
    0.4141    1.5312   -0.0000 C   0  0  0  0  0  0  0  0  0  0  0  0
    1.5646    2.2189    0.0000 F   0  0  0  0  0  0  0  0  0  0  0  0
    0.4326    0.1379   -0.0000 C   0  0  0  0  0  0  0  0  0  0  0  0
    1.6249   -0.4833   -0.0000 F   0  0  0  0  0  0  0  0  0  0  0  0
   -2.1503   -4.2277    0.0000 H   0  0  0  0  0  0  0  0  0  0  0  0
   -2.9267   -0.3870   -0.0000 H   0  0  0  0  0  0  0  0  0  0  0  0
   -2.9330    2.0330    0.0000 H   0  0  0  0  0  0  0  0  0  0  0  0
   -0.7883    3.3098    0.0000 H   0  0  0  0  0  0  0  0  0  0  0  0
  1  2  2  0  0  0  0
  2  3  1  0  0  0  0
  2 12  1  0  0  0  0
  3  4  1  0  0  0  0
  4 10  2  0  0  0  0
  4  5  1  0  0  0  0
  5  6  2  0  0  0  0
  5 13  1  0  0  0  0
  6  7  1  0  0  0  0
  6 14  1  0  0  0  0
  7  8  2  0  0  0  0
  7 15  1  0  0  0  0
  8  9  1  0  0  0  0
  8 10  1  0  0  0  0
 10 11  1  0  0  0  0
M  END
$$$$
