
 OpenBabel03202621312D

 15 14  0  0  0  0  0  0  0  0999 V2000
    4.3301   -1.5000    0.0000 C   0  0  0  0  0  0  0  0  0  0  0  0
    4.3301   -0.5000    0.0000 C   0  0  0  0  0  0  0  0  0  0  0  0
    5.3207    0.2383    0.0000 O   0  0  0  0  0  0  0  0  0  0  0  0
    3.0952    0.2006    0.0000 N   0  0  0  0  0  0  0  0  0  0  0  0
    1.7518   -0.3307   -0.0002 C   0  0  0  0  0  0  0  0  0  0  0  0
    0.6715    0.5433    0.0001 O   0  0  0  0  0  0  0  0  0  0  0  0
   -0.5348   -0.0938    0.0000 C   0  0  0  0  0  0  0  0  0  0  0  0
   -1.6153    0.4913    0.0000 O   0  0  0  0  0  0  0  0  0  0  0  0
    3.3985   -1.9994   -0.0000 H   0  0  0  0  0  0  0  0  0  0  0  0
    5.3971   -1.7891   -0.0000 H   0  0  0  0  0  0  0  0  0  0  0  0
    4.3301   -2.5700    0.0000 H   0  0  0  0  0  0  0  0  0  0  0  0
    3.2072    1.2232   -0.0000 H   0  0  0  0  0  0  0  0  0  0  0  0
    2.0707   -1.3415    0.0002 H   0  0  0  0  0  0  0  0  0  0  0  0
    1.1588   -1.2455   -0.0001 H   0  0  0  0  0  0  0  0  0  0  0  0
   -0.5253   -1.1923    0.0000 H   0  0  0  0  0  0  0  0  0  0  0  0
  1  2  1  0  0  0  0
  1  9  1  0  0  0  0
  1 10  1  0  0  0  0
  1 11  1  0  0  0  0
  2  3  2  0  0  0  0
  2  4  1  0  0  0  0
  4  5  1  0  0  0  0
  4 12  1  0  0  0  0
  5  6  1  0  0  0  0
  5 13  1  0  0  0  0
  5 14  1  0  0  0  0
  6  7  1  0  0  0  0
  7  8  2  0  0  0  0
  7 15  1  0  0  0  0
M  END
$$$$
