
 OpenBabel03202621302D

 24 23  0  0  1  0  0  0  0  0999 V2000
    4.3301    1.5000    0.0000 C   0  0  0  0  0  0  0  0  0  0  0  0
    4.3301    2.5000    0.0000 S   0  0  0  0  0  0  0  0  0  0  0  0
    3.7939    3.9802    0.5583 C   0  0  0  0  0  0  0  0  0  0  0  0
    4.6421    5.4085    0.4167 S   0  0  0  0  0  0  0  0  0  0  0  0
    2.4899    3.9088    0.9466 N   0  0  0  0  0  0  0  0  0  0  0  0
    1.5452    4.4633   -0.0138 C   0  0  0  0  0  0  0  0  0  0  0  0
    0.3739    3.5055   -0.1695 C   0  0  2  0  0  0  0  0  0  0  0  0
   -0.4487    3.9628   -1.3185 N   0  0  0  0  0  0  0  0  0  0  0  0
   -1.4426    4.5304   -1.0387 C   0  0  0  0  0  0  0  0  0  0  0  0
   -2.7972    5.2689   -0.6565 S   0  0  0  0  0  0  0  0  0  0  0  0
    0.9249    2.0648   -0.2204 O   0  0  0  0  0  0  0  0  0  0  0  0
    0.0000    1.0000    0.0000 C   0  0  0  0  0  0  0  0  0  0  0  0
   -0.8660    1.5000    0.0000 C   0  0  0  0  0  0  0  0  0  0  0  0
    0.3587   -0.1467    0.1718 O   0  0  0  0  0  0  0  0  0  0  0  0
    3.4793    1.3222   -0.6840 H   0  0  0  0  0  0  0  0  0  0  0  0
    5.2661    1.3280   -0.5641 H   0  0  0  0  0  0  0  0  0  0  0  0
    4.3301    0.4300    0.0000 H   0  0  0  0  0  0  0  0  0  0  0  0
    2.2789    2.9264    1.1160 H   0  0  0  0  0  0  0  0  0  0  0  0
    2.0229    4.6168   -0.9908 H   0  0  0  0  0  0  0  0  0  0  0  0
    1.2112    5.4396    0.3523 H   0  0  0  0  0  0  0  0  0  0  0  0
   -0.1726    3.5736    0.7863 H   0  0  0  0  0  0  0  0  0  0  0  0
   -1.1131    1.3174    1.0743 H   0  0  0  0  0  0  0  0  0  0  0  0
   -1.4261    0.7963   -0.6603 H   0  0  0  0  0  0  0  0  0  0  0  0
   -1.7926    2.0350    0.0000 H   0  0  0  0  0  0  0  0  0  0  0  0
  1  2  1  0  0  0  0
  1 15  1  0  0  0  0
  1 16  1  0  0  0  0
  1 17  1  0  0  0  0
  2  3  1  0  0  0  0
  3  4  2  0  0  0  0
  3  5  1  0  0  0  0
  5  6  1  0  0  0  0
  5 18  1  0  0  0  0
  6 19  1  0  0  0  0
  6 20  1  0  0  0  0
  7  6  1  0  0  0  0
  7  8  1  0  0  0  0
  7 11  1  0  0  0  0
  7 21  1  6  0  0  0
  8  9  2  0  0  0  0
  9 10  2  0  0  0  0
 11 12  1  0  0  0  0
 12 13  1  0  0  0  0
 12 14  2  0  0  0  0
 13 22  1  0  0  0  0
 13 23  1  0  0  0  0
 13 24  1  0  0  0  0
M  END
$$$$
