
 OpenBabel03202621372D

 15 14  0  0  0  0  0  0  0  0999 V2000
    2.4447   -0.3489   -0.0000 C   0  0  0  0  0  0  0  0  0  0  0  0
    1.7321    1.0000    0.0000 C   0  0  0  0  0  0  0  0  0  0  0  0
    2.5981    1.5000    0.0000 C   0  0  0  0  0  0  0  0  0  0  0  0
    0.8875    2.2111    0.0000 C   0  0  0  0  0  0  0  0  0  0  0  0
    0.7821    3.4008   -0.0000 O   0  0  0  0  0  0  0  0  0  0  0  0
    0.0000    1.0000    0.0000 S   0  0  0  0  0  0  0  0  0  0  0  0
    0.0000    0.0000    0.0000 C   0  0  0  0  0  0  0  0  0  0  0  0
    2.1281   -1.4029   -0.0000 H   0  0  0  0  0  0  0  0  0  0  0  0
    3.5282   -0.5779   -0.0000 H   0  0  0  0  0  0  0  0  0  0  0  0
    3.6145    1.0254    0.0000 H   0  0  0  0  0  0  0  0  0  0  0  0
    2.6237    2.6281   -0.0000 H   0  0  0  0  0  0  0  0  0  0  0  0
    3.5247    2.0350    0.0000 H   0  0  0  0  0  0  0  0  0  0  0  0
   -1.0751   -0.2444    0.0000 H   0  0  0  0  0  0  0  0  0  0  0  0
    0.7312   -0.7129    0.0000 H   0  0  0  0  0  0  0  0  0  0  0  0
    0.0000   -1.0700    0.0000 H   0  0  0  0  0  0  0  0  0  0  0  0
  1  2  2  0  0  0  0
  1  8  1  0  0  0  0
  1  9  1  0  0  0  0
  2  3  1  0  0  0  0
  2  4  1  0  0  0  0
  3 10  1  0  0  0  0
  3 11  1  0  0  0  0
  3 12  1  0  0  0  0
  4  5  2  0  0  0  0
  4  6  1  0  0  0  0
  6  7  1  0  0  0  0
  7 13  1  0  0  0  0
  7 14  1  0  0  0  0
  7 15  1  0  0  0  0
M  END
$$$$
