
 OpenBabel03202621302D

 28 29  0  0  0  0  0  0  0  0999 V2000
   -2.9356   -4.4842    0.1557 O   0  0  0  0  0  0  0  0  0  0  0  0
   -2.6751   -3.2911    0.0165 C   0  0  0  0  0  0  0  0  0  0  0  0
   -1.1968   -2.6049    0.6653 S   0  0  0  0  0  0  0  0  0  0  0  0
   -1.2871   -0.8660    0.2746 C   0  0  0  0  0  0  0  0  0  0  0  0
   -2.4633   -0.1180    0.3160 C   0  0  0  0  0  0  0  0  0  0  0  0
   -2.4293    1.2574    0.0726 C   0  0  0  0  0  0  0  0  0  0  0  0
   -1.2166    1.9034   -0.1825 C   0  0  0  0  0  0  0  0  0  0  0  0
   -0.0117    1.1883   -0.2015 C   0  0  0  0  0  0  0  0  0  0  0  0
    1.3084    1.8838   -0.4901 C   0  0  0  0  0  0  0  0  0  0  0  0
    1.4801    3.2666    0.1540 C   0  0  0  0  0  0  0  0  0  0  0  0
    2.9729    3.5539    0.0436 C   0  0  0  0  0  0  0  0  0  0  0  0
    3.6640    2.1981    0.0994 C   0  0  0  0  0  0  0  0  0  0  0  0
    2.5599    1.1502    0.0174 C   0  0  0  0  0  0  0  0  0  0  0  0
   -0.0770   -0.2032    0.0044 C   0  0  0  0  0  0  0  0  0  0  0  0
   -3.3638   -2.6250   -0.5166 H   0  0  0  0  0  0  0  0  0  0  0  0
   -3.4196   -0.5736    0.5546 H   0  0  0  0  0  0  0  0  0  0  0  0
   -3.3509    1.8345    0.0990 H   0  0  0  0  0  0  0  0  0  0  0  0
   -1.2281    2.9765   -0.3582 H   0  0  0  0  0  0  0  0  0  0  0  0
    1.3863    1.9923   -1.5808 H   0  0  0  0  0  0  0  0  0  0  0  0
    0.8939    4.0430   -0.3496 H   0  0  0  0  0  0  0  0  0  0  0  0
    1.1796    3.2509    1.2090 H   0  0  0  0  0  0  0  0  0  0  0  0
    3.3186    4.2226    0.8382 H   0  0  0  0  0  0  0  0  0  0  0  0
    3.1942    4.0396   -0.9137 H   0  0  0  0  0  0  0  0  0  0  0  0
    4.3683    2.0929   -0.7329 H   0  0  0  0  0  0  0  0  0  0  0  0
    4.2364    2.0789    1.0259 H   0  0  0  0  0  0  0  0  0  0  0  0
    2.8455    0.3234   -0.6421 H   0  0  0  0  0  0  0  0  0  0  0  0
    2.3942    0.7325    1.0187 H   0  0  0  0  0  0  0  0  0  0  0  0
    0.8370   -0.7940   -0.0255 H   0  0  0  0  0  0  0  0  0  0  0  0
  1  2  2  0  0  0  0
  2  3  1  0  0  0  0
  2 15  1  0  0  0  0
  3  4  1  0  0  0  0
  4 14  2  0  0  0  0
  4  5  1  0  0  0  0
  5  6  2  0  0  0  0
  5 16  1  0  0  0  0
  6  7  1  0  0  0  0
  6 17  1  0  0  0  0
  7  8  2  0  0  0  0
  7 18  1  0  0  0  0
  8  9  1  0  0  0  0
  8 14  1  0  0  0  0
  9 13  1  0  0  0  0
  9 10  1  0  0  0  0
  9 19  1  0  0  0  0
 10 11  1  0  0  0  0
 10 20  1  0  0  0  0
 10 21  1  0  0  0  0
 11 12  1  0  0  0  0
 11 22  1  0  0  0  0
 11 23  1  0  0  0  0
 12 13  1  0  0  0  0
 12 24  1  0  0  0  0
 12 25  1  0  0  0  0
 13 26  1  0  0  0  0
 13 27  1  0  0  0  0
 14 28  1  0  0  0  0
M  END
$$$$
