
 OpenBabel03202621312D

 22 23  0  0  1  0  0  0  0  0999 V2000
   -3.2876   -3.2884   -0.6822 O   0  0  0  0  0  0  0  0  0  0  0  0
   -3.2363   -2.1363   -0.2742 C   0  0  0  0  0  0  0  0  0  0  0  0
   -2.1029   -1.3782   -0.1526 N   0  0  0  0  0  0  0  0  0  0  0  0
   -0.8179   -1.8752   -0.6010 C   0  0  0  0  0  0  0  0  0  0  0  0
    0.2779   -0.9866   -0.0588 C   0  0  3  0  0  0  0  0  0  0  0  0
    0.1002    0.5064    0.4264 C   0  0  0  0  0  0  0  0  0  0  0  0
    1.6368    0.5060    0.2029 C   0  0  3  0  0  0  0  0  0  0  0  0
    2.1358   -0.5255    1.1924 C   0  0  0  0  0  0  0  0  0  0  0  0
    1.1306   -1.5788    1.0112 N   0  0  0  0  0  0  0  0  0  0  0  0
    1.3207   -0.3505   -1.0530 C   0  0  0  0  0  0  0  0  0  0  0  0
   -4.1364   -1.5798    0.0358 H   0  0  0  0  0  0  0  0  0  0  0  0
   -2.2209   -0.3954    0.0530 H   0  0  0  0  0  0  0  0  0  0  0  0
   -0.7050   -2.9183   -0.2824 H   0  0  0  0  0  0  0  0  0  0  0  0
   -0.8324   -1.8680   -1.6965 H   0  0  0  0  0  0  0  0  0  0  0  0
   -0.2506    0.6535    1.4537 H   0  0  0  0  0  0  0  0  0  0  0  0
   -0.4749    1.1644   -0.2355 H   0  0  0  0  0  0  0  0  0  0  0  0
    2.1543    1.4557    0.0839 H   0  0  0  0  0  0  0  0  0  0  0  0
    2.1331   -0.1529    2.2210 H   0  0  0  0  0  0  0  0  0  0  0  0
    3.1416   -0.8782    0.9400 H   0  0  0  0  0  0  0  0  0  0  0  0
    1.5908   -2.4498    0.7462 H   0  0  0  0  0  0  0  0  0  0  0  0
    2.1190   -1.0005   -1.4250 H   0  0  0  0  0  0  0  0  0  0  0  0
    0.8940    0.1947   -1.9041 H   0  0  0  0  0  0  0  0  0  0  0  0
  1  2  2  0  0  0  0
  2  3  1  0  0  0  0
  2 11  1  0  0  0  0
  3  4  1  0  0  0  0
  3 12  1  0  0  0  0
  4  5  1  0  0  0  0
  4 13  1  0  0  0  0
  4 14  1  0  0  0  0
  5  9  1  0  0  0  0
  5 10  1  0  0  0  0
  5  6  1  0  0  0  0
  6  7  1  0  0  0  0
  6 15  1  0  0  0  0
  6 16  1  0  0  0  0
  7  8  1  0  0  0  0
  7 10  1  0  0  0  0
  7 17  1  0  0  0  0
  8  9  1  0  0  0  0
  8 18  1  0  0  0  0
  8 19  1  0  0  0  0
  9 20  1  0  0  0  0
 10 21  1  0  0  0  0
 10 22  1  0  0  0  0
M  END
$$$$
