
 OpenBabel03202621282D

  9  9  0  0  0  0  0  0  0  0999 V2000
    1.2588    0.9659    0.0000 N   0  0  0  0  0  0  0  0  0  0  0  0
    1.0000   -0.0000    0.0000 C   0  0  0  0  0  0  0  0  0  0  0  0
    1.9968   -0.0802    0.0000 C   0  0  0  0  0  0  0  0  0  0  0  0
    2.5646    0.7429    0.0000 C   0  0  0  0  0  0  0  0  0  0  0  0
    3.5614    0.6627    0.0000 O   0  0  0  0  0  0  0  0  0  0  0  0
    4.1293    1.4858    0.0000 C   0  0  0  0  0  0  0  0  0  0  0  0
    5.1261    1.4056    0.0000 O   0  0  0  0  0  0  0  0  0  0  0  0
    0.5000   -0.8660    0.0000 C   0  0  0  0  0  0  0  0  0  0  0  0
    0.0000   -0.0000    0.0000 C   0  0  0  0  0  0  0  0  0  0  0  0
  1  2  1  0  0  0  0
  2  9  1  0  0  0  0
  2  3  1  0  0  0  0
  2  8  1  0  0  0  0
  3  4  1  0  0  0  0
  4  5  1  0  0  0  0
  5  6  1  0  0  0  0
  6  7  2  0  0  0  0
  8  9  1  0  0  0  0
M  END
$$$$
