
 OpenBabel03202621352D

 21 21  0  0  1  0  0  0  0  0999 V2000
    0.7420    1.2431    1.2984 N   0  0  0  0  0  0  0  0  0  0  0  0
    1.1401    0.4850    0.0877 C   0  0  2  0  0  0  0  0  0  0  0  0
    2.0616    1.3372   -0.8030 C   0  0  0  0  0  0  0  0  0  0  0  0
    1.4905    2.6393   -1.0182 O   0  0  0  0  0  0  0  0  0  0  0  0
    2.2545    3.6964   -0.6593 C   0  0  0  0  0  0  0  0  0  0  0  0
    1.8737    4.8567   -0.7334 O   0  0  0  0  0  0  0  0  0  0  0  0
    1.8114   -0.8166    0.5167 C   0  0  0  0  0  0  0  0  0  0  0  0
    0.7233   -1.8724    0.4446 C   0  0  0  0  0  0  0  0  0  0  0  0
   -0.4809   -1.2262    0.0184 O   0  0  0  0  0  0  0  0  0  0  0  0
   -0.0976   -0.0219   -0.6626 C   0  0  0  0  0  0  0  0  0  0  0  0
    0.3380    2.1361    0.9998 H   0  0  0  0  0  0  0  0  0  0  0  0
   -0.0352    0.7488    1.7465 H   0  0  0  0  0  0  0  0  0  0  0  0
    2.1784    0.8737   -1.7892 H   0  0  0  0  0  0  0  0  0  0  0  0
    3.0605    1.4009   -0.3541 H   0  0  0  0  0  0  0  0  0  0  0  0
    3.2601    3.4186   -0.3132 H   0  0  0  0  0  0  0  0  0  0  0  0
    2.2392   -0.7645    1.5250 H   0  0  0  0  0  0  0  0  0  0  0  0
    2.6406   -1.0935   -0.1461 H   0  0  0  0  0  0  0  0  0  0  0  0
    0.5505   -2.3656    1.4056 H   0  0  0  0  0  0  0  0  0  0  0  0
    0.9803   -2.6408   -0.2925 H   0  0  0  0  0  0  0  0  0  0  0  0
   -0.9374    0.6794   -0.6542 H   0  0  0  0  0  0  0  0  0  0  0  0
    0.1242   -0.2826   -1.7034 H   0  0  0  0  0  0  0  0  0  0  0  0
  1 11  1  0  0  0  0
  1 12  1  0  0  0  0
  2  1  1  6  0  0  0
  2 10  1  0  0  0  0
  2  3  1  0  0  0  0
  2  7  1  0  0  0  0
  3  4  1  0  0  0  0
  3 13  1  0  0  0  0
  3 14  1  0  0  0  0
  4  5  1  0  0  0  0
  5  6  2  0  0  0  0
  5 15  1  0  0  0  0
  7  8  1  0  0  0  0
  7 16  1  0  0  0  0
  7 17  1  0  0  0  0
  8  9  1  0  0  0  0
  8 18  1  0  0  0  0
  8 19  1  0  0  0  0
  9 10  1  0  0  0  0
 10 20  1  0  0  0  0
 10 21  1  0  0  0  0
M  END
$$$$
