
 OpenBabel03202621372D

 30 31  0  0  0  0  0  0  0  0999 V2000
   -0.1280   -2.6736    0.0000 C   0  0  0  0  0  0  0  0  0  0  0  0
    0.2788   -1.7601    0.0000 C   0  0  0  0  0  0  0  0  0  0  0  0
   -0.4913   -0.4814    0.2583 C   0  0  0  0  0  0  0  0  0  0  0  0
   -1.6850   -0.2776    0.9182 C   0  0  0  0  0  0  0  0  0  0  0  0
   -1.9286    1.0722    0.9546 N   0  0  0  0  0  0  0  0  0  0  0  0
   -0.9979    1.7460    0.1892 C   0  0  0  0  0  0  0  0  0  0  0  0
   -0.9954    3.1499   -0.1745 C   0  0  0  0  0  0  0  0  0  0  0  0
    0.0253    3.8241   -0.2681 O   0  0  0  0  0  0  0  0  0  0  0  0
   -2.2305    3.7253   -0.4159 O   0  0  0  0  0  0  0  0  0  0  0  0
   -3.4232    3.0177   -0.6579 C   0  0  0  0  0  0  0  0  0  0  0  0
   -3.5625    1.9654   -1.4817 C   0  0  0  0  0  0  0  0  0  0  0  0
   -4.7031    1.2040   -1.5784 O   0  0  0  0  0  0  0  0  0  0  0  0
   -5.6786    1.3723   -0.5265 C   0  0  0  0  0  0  0  0  0  0  0  0
   -5.6436    2.7037    0.1699 C   0  0  0  0  0  0  0  0  0  0  0  0
   -4.5626    3.4809    0.0872 C   0  0  0  0  0  0  0  0  0  0  0  0
   -4.4805    4.6982    0.7132 O   0  0  0  0  0  0  0  0  0  0  0  0
   -0.0331    0.8117   -0.1364 C   0  0  0  0  0  0  0  0  0  0  0  0
   -0.3662   -2.7784    1.0882 H   0  0  0  0  0  0  0  0  0  0  0  0
    0.7827   -3.2916   -0.2109 H   0  0  0  0  0  0  0  0  0  0  0  0
   -0.5633   -3.6511    0.0000 H   0  0  0  0  0  0  0  0  0  0  0  0
    0.7192   -1.5217   -0.9893 H   0  0  0  0  0  0  0  0  0  0  0  0
    1.1632   -1.6090    0.6577 H   0  0  0  0  0  0  0  0  0  0  0  0
   -2.3711   -0.9734    1.3841 H   0  0  0  0  0  0  0  0  0  0  0  0
   -2.7322    1.4966    1.3996 H   0  0  0  0  0  0  0  0  0  0  0  0
   -2.7869    1.5772   -2.1296 H   0  0  0  0  0  0  0  0  0  0  0  0
   -6.6630    1.2146   -0.9759 H   0  0  0  0  0  0  0  0  0  0  0  0
   -5.5184    0.5756    0.2115 H   0  0  0  0  0  0  0  0  0  0  0  0
   -6.5037    3.0138    0.7501 H   0  0  0  0  0  0  0  0  0  0  0  0
   -3.6687    5.1367    0.3937 H   0  0  0  0  0  0  0  0  0  0  0  0
    0.8834    1.0306   -0.6742 H   0  0  0  0  0  0  0  0  0  0  0  0
  1  2  1  0  0  0  0
  1 18  1  0  0  0  0
  1 19  1  0  0  0  0
  1 20  1  0  0  0  0
  2  3  1  0  0  0  0
  2 21  1  0  0  0  0
  2 22  1  0  0  0  0
  3 17  1  0  0  0  0
  3  4  2  0  0  0  0
  4  5  1  0  0  0  0
  4 23  1  0  0  0  0
  5  6  1  0  0  0  0
  5 24  1  0  0  0  0
  6  7  1  0  0  0  0
  6 17  2  0  0  0  0
  7  8  2  0  0  0  0
  7  9  1  0  0  0  0
  9 10  1  0  0  0  0
 10 15  1  0  0  0  0
 10 11  2  0  0  0  0
 11 12  1  0  0  0  0
 11 25  1  0  0  0  0
 12 13  1  0  0  0  0
 13 14  1  0  0  0  0
 13 26  1  0  0  0  0
 13 27  1  0  0  0  0
 14 15  2  0  0  0  0
 14 28  1  0  0  0  0
 15 16  1  0  0  0  0
 16 29  1  0  0  0  0
 17 30  1  0  0  0  0
M  END
$$$$
