
 OpenBabel03202621342D

 23 23  0  0  0  0  0  0  0  0999 V2000
   -2.4457   -3.7521    0.1811 C   0  0  0  0  0  0  0  0  0  0  0  0
   -1.0552   -4.3510    0.0484 C   0  0  0  0  0  0  0  0  0  0  0  0
   -0.1250   -3.6002   -0.7600 O   0  0  0  0  0  0  0  0  0  0  0  0
    0.0882   -2.2539   -0.6791 C   0  0  0  0  0  0  0  0  0  0  0  0
    0.8204   -1.6824   -1.4758 O   0  0  0  0  0  0  0  0  0  0  0  0
   -0.6596   -1.6631    0.3031 O   0  0  0  0  0  0  0  0  0  0  0  0
   -0.6529   -0.2765    0.1403 C   0  0  0  0  0  0  0  0  0  0  0  0
   -1.6631    0.3790   -0.4497 C   0  0  0  0  0  0  0  0  0  0  0  0
   -1.7365    1.7251   -0.6889 O   0  0  0  0  0  0  0  0  0  0  0  0
   -0.7765    2.5099    0.0285 C   0  0  0  0  0  0  0  0  0  0  0  0
    0.6181    1.9134   -0.0039 C   0  0  0  0  0  0  0  0  0  0  0  0
    0.5339    0.5190    0.5506 C   0  0  0  0  0  0  0  0  0  0  0  0
    1.4091    0.0291    1.2599 O   0  0  0  0  0  0  0  0  0  0  0  0
   -2.4900   -3.0651    1.0328 H   0  0  0  0  0  0  0  0  0  0  0  0
   -3.1836   -4.5361    0.3777 H   0  0  0  0  0  0  0  0  0  0  0  0
   -2.7394   -3.2000   -0.7171 H   0  0  0  0  0  0  0  0  0  0  0  0
   -1.1596   -5.3107   -0.4712 H   0  0  0  0  0  0  0  0  0  0  0  0
   -0.6028   -4.5641    1.0220 H   0  0  0  0  0  0  0  0  0  0  0  0
   -2.5361   -0.1231   -0.8487 H   0  0  0  0  0  0  0  0  0  0  0  0
   -1.1319    2.6276    1.0589 H   0  0  0  0  0  0  0  0  0  0  0  0
   -0.7644    3.5062   -0.4274 H   0  0  0  0  0  0  0  0  0  0  0  0
    1.3002    2.5132    0.6057 H   0  0  0  0  0  0  0  0  0  0  0  0
    1.0049    1.8507   -1.0265 H   0  0  0  0  0  0  0  0  0  0  0  0
  1  2  1  0  0  0  0
  1 14  1  0  0  0  0
  1 15  1  0  0  0  0
  1 16  1  0  0  0  0
  2  3  1  0  0  0  0
  2 17  1  0  0  0  0
  2 18  1  0  0  0  0
  3  4  1  0  0  0  0
  4  5  2  0  0  0  0
  4  6  1  0  0  0  0
  6  7  1  0  0  0  0
  7 12  1  0  0  0  0
  7  8  2  0  0  0  0
  8  9  1  0  0  0  0
  8 19  1  0  0  0  0
  9 10  1  0  0  0  0
 10 11  1  0  0  0  0
 10 20  1  0  0  0  0
 10 21  1  0  0  0  0
 11 12  1  0  0  0  0
 11 22  1  0  0  0  0
 11 23  1  0  0  0  0
 12 13  2  0  0  0  0
M  END
$$$$
