
 OpenBabel03202621382D

 33 34  0  0  0  0  0  0  0  0999 V2000
   -4.5899    0.5659    0.9435 O   0  0  0  0  0  0  0  0  0  0  0  0
   -4.9327    1.6024    0.3789 C   0  0  0  0  0  0  0  0  0  0  0  0
   -6.3622    1.8649    0.0002 C   0  0  0  0  0  0  0  0  0  0  0  0
   -6.6089    3.3562    0.0892 C   0  0  0  0  0  0  0  0  0  0  0  0
   -5.7059    4.1145   -0.7208 O   0  0  0  0  0  0  0  0  0  0  0  0
   -4.3902    3.7353   -0.6129 C   0  0  0  0  0  0  0  0  0  0  0  0
   -3.9262    2.6061   -0.0613 C   0  0  0  0  0  0  0  0  0  0  0  0
   -2.5720    2.1870   -0.0805 O   0  0  0  0  0  0  0  0  0  0  0  0
   -1.4248    2.8541    0.2246 C   0  0  0  0  0  0  0  0  0  0  0  0
   -1.4004    4.3141    1.0193 S   0  0  0  0  0  0  0  0  0  0  0  0
   -0.3545    2.0994   -0.1766 N   0  0  0  0  0  0  0  0  0  0  0  0
    1.0508    2.4341   -0.1022 C   0  0  0  0  0  0  0  0  0  0  0  0
    2.0613    1.2830    0.1102 C   0  0  0  0  0  0  0  0  0  0  0  0
    1.7338   -0.1915    0.0685 C   0  0  0  0  0  0  0  0  0  0  0  0
    2.7820   -1.0939   -0.1824 C   0  0  0  0  0  0  0  0  0  0  0  0
    2.5638   -2.4694   -0.1618 C   0  0  0  0  0  0  0  0  0  0  0  0
    1.2877   -2.9197    0.1038 C   0  0  0  0  0  0  0  0  0  0  0  0
    0.2561   -2.0976    0.3779 N   0  0  0  0  0  0  0  0  0  0  0  0
    0.5071   -0.7641    0.3863 C   0  0  0  0  0  0  0  0  0  0  0  0
   -6.5114    1.4947   -1.0206 H   0  0  0  0  0  0  0  0  0  0  0  0
   -7.0282    1.3282    0.6815 H   0  0  0  0  0  0  0  0  0  0  0  0
   -7.6250    3.5813   -0.2554 H   0  0  0  0  0  0  0  0  0  0  0  0
   -6.5300    3.7117    1.1260 H   0  0  0  0  0  0  0  0  0  0  0  0
   -3.7567    4.4729   -1.0921 H   0  0  0  0  0  0  0  0  0  0  0  0
   -0.6196    1.3345   -0.7934 H   0  0  0  0  0  0  0  0  0  0  0  0
    1.2818    2.9433   -1.0455 H   0  0  0  0  0  0  0  0  0  0  0  0
    1.2160    3.1765    0.6851 H   0  0  0  0  0  0  0  0  0  0  0  0
    2.5585    1.4579    1.0700 H   0  0  0  0  0  0  0  0  0  0  0  0
    2.8453    1.4524   -0.6463 H   0  0  0  0  0  0  0  0  0  0  0  0
    3.7893   -0.7275   -0.3711 H   0  0  0  0  0  0  0  0  0  0  0  0
    3.3732   -3.1687   -0.3374 H   0  0  0  0  0  0  0  0  0  0  0  0
    1.0550   -3.9809    0.1221 H   0  0  0  0  0  0  0  0  0  0  0  0
   -0.3501   -0.1821    0.6987 H   0  0  0  0  0  0  0  0  0  0  0  0
  1  2  2  0  0  0  0
  2  7  1  0  0  0  0
  2  3  1  0  0  0  0
  3  4  1  0  0  0  0
  3 20  1  0  0  0  0
  3 21  1  0  0  0  0
  4  5  1  0  0  0  0
  4 22  1  0  0  0  0
  4 23  1  0  0  0  0
  5  6  1  0  0  0  0
  6  7  2  0  0  0  0
  6 24  1  0  0  0  0
  7  8  1  0  0  0  0
  8  9  1  0  0  0  0
  9 10  2  0  0  0  0
  9 11  1  0  0  0  0
 11 12  1  0  0  0  0
 11 25  1  0  0  0  0
 12 13  1  0  0  0  0
 12 26  1  0  0  0  0
 12 27  1  0  0  0  0
 13 14  1  0  0  0  0
 13 28  1  0  0  0  0
 13 29  1  0  0  0  0
 14 19  2  0  0  0  0
 14 15  1  0  0  0  0
 15 16  2  0  0  0  0
 15 30  1  0  0  0  0
 16 17  1  0  0  0  0
 16 31  1  0  0  0  0
 17 18  2  0  0  0  0
 17 32  1  0  0  0  0
 18 19  1  0  0  0  0
 19 33  1  0  0  0  0
M  END
$$$$
