
 OpenBabel03202621352D

 29 31  0  0  0  0  0  0  0  0999 V2000
    1.4945   -0.9706    0.0000 C   0  0  0  0  0  0  0  0  0  0  0  0
    0.5000   -0.8660    0.0000 C   0  0  0  0  0  0  0  0  0  0  0  0
   -0.2492   -1.9569    0.0000 C   0  0  0  0  0  0  0  0  0  0  0  0
   -1.3913   -1.3618    0.0000 N   0  0  0  0  0  0  0  0  0  0  0  0
   -2.4836   -2.1003   -0.0000 C   0  0  0  0  0  0  0  0  0  0  0  0
   -2.4293   -3.4994   -0.0000 C   0  0  0  0  0  0  0  0  0  0  0  0
   -3.6351   -4.1218   -0.0000 C   0  0  0  0  0  0  0  0  0  0  0  0
   -4.7293   -3.3056   -0.0000 C   0  0  0  0  0  0  0  0  0  0  0  0
   -5.8947   -3.9047    0.0000 N   0  0  0  0  0  0  0  0  0  0  0  0
   -6.8976   -3.0685    0.0000 C   0  0  0  0  0  0  0  0  0  0  0  0
   -8.1192   -3.7683    0.0000 N   0  0  0  0  0  0  0  0  0  0  0  0
   -6.9573   -1.7175    0.0000 N   0  0  0  0  0  0  0  0  0  0  0  0
   -5.7937   -1.0876   -0.0000 C   0  0  0  0  0  0  0  0  0  0  0  0
   -5.7418    0.3010   -0.0000 N   0  0  0  0  0  0  0  0  0  0  0  0
   -4.6972   -1.8971   -0.0000 C   0  0  0  0  0  0  0  0  0  0  0  0
   -3.5536   -1.2658   -0.0000 C   0  0  0  0  0  0  0  0  0  0  0  0
   -1.3845   -0.0111    0.0000 N   0  0  0  0  0  0  0  0  0  0  0  0
   -0.1289    0.3198    0.0000 N   0  0  0  0  0  0  0  0  0  0  0  0
    1.8143   -2.0326   -0.0000 H   0  0  0  0  0  0  0  0  0  0  0  0
    1.9486    0.0366   -0.0000 H   0  0  0  0  0  0  0  0  0  0  0  0
    2.5586   -1.0825    0.0000 H   0  0  0  0  0  0  0  0  0  0  0  0
    0.0274   -3.0051    0.0000 H   0  0  0  0  0  0  0  0  0  0  0  0
   -1.5283   -4.0959    0.0000 H   0  0  0  0  0  0  0  0  0  0  0  0
   -3.6492   -5.2046    0.0000 H   0  0  0  0  0  0  0  0  0  0  0  0
   -8.5081   -2.8323   -0.0000 H   0  0  0  0  0  0  0  0  0  0  0  0
   -7.5009   -4.5822   -0.0000 H   0  0  0  0  0  0  0  0  0  0  0  0
   -4.8840    0.8405    0.0000 H   0  0  0  0  0  0  0  0  0  0  0  0
   -6.5931    0.8211    0.0000 H   0  0  0  0  0  0  0  0  0  0  0  0
   -3.4444   -0.1991   -0.0000 H   0  0  0  0  0  0  0  0  0  0  0  0
  1  2  1  0  0  0  0
  1 19  1  0  0  0  0
  1 20  1  0  0  0  0
  1 21  1  0  0  0  0
  2 18  1  0  0  0  0
  2  3  2  0  0  0  0
  3  4  1  0  0  0  0
  3 22  1  0  0  0  0
  4  5  1  0  0  0  0
  4 17  1  0  0  0  0
  5 16  2  0  0  0  0
  5  6  1  0  0  0  0
  6  7  2  0  0  0  0
  6 23  1  0  0  0  0
  7  8  1  0  0  0  0
  7 24  1  0  0  0  0
  8 15  2  0  0  0  0
  8  9  1  0  0  0  0
  9 10  2  0  0  0  0
 10 11  1  0  0  0  0
 10 12  1  0  0  0  0
 11 25  1  0  0  0  0
 11 26  1  0  0  0  0
 12 13  2  0  0  0  0
 13 14  1  0  0  0  0
 13 15  1  0  0  0  0
 14 27  1  0  0  0  0
 14 28  1  0  0  0  0
 15 16  1  0  0  0  0
 16 29  1  0  0  0  0
 17 18  2  0  0  0  0
M  END
$$$$
