
 OpenBabel03202621292D

 18 17  0  0  1  0  0  0  0  0999 V2000
    2.5981    0.5000    0.0000 C   0  0  0  0  0  0  0  0  0  0  0  0
    2.5981    1.5000    0.0000 O   0  0  0  0  0  0  0  0  0  0  0  0
    1.9334    2.6277   -0.0000 C   0  0  0  0  0  0  0  0  0  0  0  0
    2.5708    3.6964    0.0000 O   0  0  0  0  0  0  0  0  0  0  0  0
    0.4410    2.3563    0.0000 C   0  0  2  0  0  0  0  0  0  0  0  0
   -0.9533    3.0365   -0.0000 C   0  0  0  0  0  0  0  0  0  0  0  0
   -2.4569    2.1457   -0.0000 Cl  0  0  0  0  0  0  0  0  0  0  0  0
    0.8660    0.5000    0.0000 S   0  0  0  0  0  0  0  0  0  0  0  0
    0.0000    0.0000    0.0000 C   0  0  0  0  0  0  0  0  0  0  0  0
    2.1158   -0.7506   -0.0000 H   0  0  0  0  0  0  0  0  0  0  0  0
    3.7031    0.3394   -0.0000 H   0  0  0  0  0  0  0  0  0  0  0  0
    2.5981   -0.5700    0.0000 H   0  0  0  0  0  0  0  0  0  0  0  0
    0.7565    3.3821   -0.0000 H   0  0  0  0  0  0  0  0  0  0  0  0
   -0.5783    4.1036   -0.0000 H   0  0  0  0  0  0  0  0  0  0  0  0
   -1.6334    3.8969    0.0000 H   0  0  0  0  0  0  0  0  0  0  0  0
   -0.8399    0.6356   -0.0000 H   0  0  0  0  0  0  0  0  0  0  0  0
    0.2213   -1.0738   -0.0000 H   0  0  0  0  0  0  0  0  0  0  0  0
   -0.9266   -0.5350    0.0000 H   0  0  0  0  0  0  0  0  0  0  0  0
  1  2  1  0  0  0  0
  1 10  1  0  0  0  0
  1 11  1  0  0  0  0
  1 12  1  0  0  0  0
  2  3  1  0  0  0  0
  3  4  2  0  0  0  0
  3  5  1  0  0  0  0
  5  6  1  0  0  0  0
  5  8  1  0  0  0  0
  5 13  1  6  0  0  0
  6  7  1  0  0  0  0
  6 14  1  0  0  0  0
  6 15  1  0  0  0  0
  8  9  1  0  0  0  0
  9 16  1  0  0  0  0
  9 17  1  0  0  0  0
  9 18  1  0  0  0  0
M  END
$$$$
