
 OpenBabel03202621362D

 21 20  0  0  0  0  0  0  0  0999 V2000
    0.8660   -1.5000    0.0000 C   0  0  0  0  0  0  0  0  0  0  0  0
    1.7321   -2.0000    0.0000 C   0  0  0  0  0  0  0  0  0  0  0  0
    2.8355   -1.6128    0.7479 C   0  0  0  0  0  0  0  0  0  0  0  0
    2.5981   -0.5000    0.0000 C   0  0  0  0  0  0  0  0  0  0  0  0
    3.4641    0.0000    0.0000 C   0  0  0  0  0  0  0  0  0  0  0  0
    1.8950    0.3447   -0.9970 C   0  0  0  0  0  0  0  0  0  0  0  0
    1.9753    1.4638   -1.4233 O   0  0  0  0  0  0  0  0  0  0  0  0
    0.8660   -0.5000    0.0000 S   0  0  0  0  0  0  0  0  0  0  0  0
    0.0000    0.0000    0.0000 C   0  0  0  0  0  0  0  0  0  0  0  0
    0.3150   -2.1989    0.9829 H   0  0  0  0  0  0  0  0  0  0  0  0
    0.2844   -2.2995   -0.8378 H   0  0  0  0  0  0  0  0  0  0  0  0
   -0.0607   -0.9650    0.0000 H   0  0  0  0  0  0  0  0  0  0  0  0
    1.6746   -3.0723    0.3674 H   0  0  0  0  0  0  0  0  0  0  0  0
    2.1478   -2.3832   -1.0024 H   0  0  0  0  0  0  0  0  0  0  0  0
    3.6675   -2.0300    1.2922 H   0  0  0  0  0  0  0  0  0  0  0  0
    4.1711   -0.6741   -0.5631 H   0  0  0  0  0  0  0  0  0  0  0  0
    3.6083    0.2975    1.0767 H   0  0  0  0  0  0  0  0  0  0  0  0
    4.3907    0.5350    0.0000 H   0  0  0  0  0  0  0  0  0  0  0  0
    0.2982    1.0905    0.0797 H   0  0  0  0  0  0  0  0  0  0  0  0
   -0.3391    0.0162    1.1589 H   0  0  0  0  0  0  0  0  0  0  0  0
   -0.9266    0.5350    0.0000 H   0  0  0  0  0  0  0  0  0  0  0  0
  1  2  1  0  0  0  0
  1 10  1  0  0  0  0
  1 11  1  0  0  0  0
  1 12  1  0  0  0  0
  2  3  1  0  0  0  0
  2 13  1  0  0  0  0
  2 14  1  0  0  0  0
  3  4  2  3  0  0  0
  3 15  1  0  0  0  0
  4  5  1  0  0  0  0
  4  6  1  0  0  0  0
  5 16  1  0  0  0  0
  5 17  1  0  0  0  0
  5 18  1  0  0  0  0
  6  7  2  0  0  0  0
  6  8  1  0  0  0  0
  8  9  1  0  0  0  0
  9 19  1  0  0  0  0
  9 20  1  0  0  0  0
  9 21  1  0  0  0  0
M  END
$$$$
