
 OpenBabel03202621352D

 25 26  0  0  0  0  0  0  0  0999 V2000
    2.2264    2.5303    0.6432 O   0  0  0  0  0  0  0  0  0  0  0  0
    1.2479    1.8604    0.3303 C   0  0  0  0  0  0  0  0  0  0  0  0
    0.1436    2.4166   -0.2140 O   0  0  0  0  0  0  0  0  0  0  0  0
   -1.1379    1.8507   -0.3681 C   0  0  0  0  0  0  0  0  0  0  0  0
   -1.4359    0.6729   -0.9337 C   0  0  0  0  0  0  0  0  0  0  0  0
   -2.8325    0.1133   -0.8562 C   0  0  0  0  0  0  0  0  0  0  0  0
   -3.8661    1.0225   -0.4377 O   0  0  0  0  0  0  0  0  0  0  0  0
   -3.4758    2.2387    0.0549 C   0  0  0  0  0  0  0  0  0  0  0  0
   -2.2156    2.6792    0.1113 C   0  0  0  0  0  0  0  0  0  0  0  0
   -1.9125    3.9417    0.5671 O   0  0  0  0  0  0  0  0  0  0  0  0
    1.3541    0.3403    0.4418 C   0  0  0  0  0  0  0  0  0  0  0  0
    2.6003   -0.2192   -0.1341 C   0  0  0  0  0  0  0  0  0  0  0  0
    2.6735   -1.5474   -0.1072 C   0  0  0  0  0  0  0  0  0  0  0  0
    1.6448   -2.2739    0.4152 N   0  0  0  0  0  0  0  0  0  0  0  0
    0.5160   -1.7217    0.9744 C   0  0  0  0  0  0  0  0  0  0  0  0
   -0.3772   -2.4591    1.3707 O   0  0  0  0  0  0  0  0  0  0  0  0
    0.4199   -0.3508    1.0107 N   0  0  0  0  0  0  0  0  0  0  0  0
   -0.6831    0.0332   -1.3755 H   0  0  0  0  0  0  0  0  0  0  0  0
   -2.8325   -0.7250   -0.1487 H   0  0  0  0  0  0  0  0  0  0  0  0
   -3.1254   -0.2829   -1.8331 H   0  0  0  0  0  0  0  0  0  0  0  0
   -4.3245    2.8253    0.3770 H   0  0  0  0  0  0  0  0  0  0  0  0
   -0.9666    4.0953    0.3876 H   0  0  0  0  0  0  0  0  0  0  0  0
    3.3808    0.4294   -0.5085 H   0  0  0  0  0  0  0  0  0  0  0  0
    3.5278   -2.0988   -0.4852 H   0  0  0  0  0  0  0  0  0  0  0  0
    1.6663   -3.2853    0.4153 H   0  0  0  0  0  0  0  0  0  0  0  0
  1  2  2  0  0  0  0
  2  3  1  0  0  0  0
  2 11  1  0  0  0  0
  3  4  1  0  0  0  0
  4  9  1  0  0  0  0
  4  5  2  0  0  0  0
  5  6  1  0  0  0  0
  5 18  1  0  0  0  0
  6  7  1  0  0  0  0
  6 19  1  0  0  0  0
  6 20  1  0  0  0  0
  7  8  1  0  0  0  0
  8  9  2  0  0  0  0
  8 21  1  0  0  0  0
  9 10  1  0  0  0  0
 10 22  1  0  0  0  0
 11 17  2  0  0  0  0
 11 12  1  0  0  0  0
 12 13  2  0  0  0  0
 12 23  1  0  0  0  0
 13 14  1  0  0  0  0
 13 24  1  0  0  0  0
 14 15  1  0  0  0  0
 14 25  1  0  0  0  0
 15 16  2  0  0  0  0
 15 17  1  0  0  0  0
M  END
$$$$
