
 OpenBabel03202621392D

 62 63  0  0  1  0  0  0  0  0999 V2000
    1.3748    3.5288   -0.5499 C   0  0  0  0  0  0  0  0  0  0  0  0
    0.2981    2.6803   -0.9419 O   0  0  0  0  0  0  0  0  0  0  0  0
    0.5288    1.3409   -1.0136 C   0  0  0  0  0  0  0  0  0  0  0  0
    1.6130    0.6810   -0.4765 C   0  0  0  0  0  0  0  0  0  0  0  0
    1.7761   -0.7083   -0.7643 C   0  0  0  0  0  0  0  0  0  0  0  0
    2.5981   -1.5000    0.0000 O   0  0  0  0  0  0  0  0  0  0  0  0
    3.4641   -1.0000    0.0000 C   0  0  0  0  0  0  0  0  0  0  0  0
    0.9052   -1.3795   -1.5878 C   0  0  0  0  0  0  0  0  0  0  0  0
    1.1814   -2.9725   -2.1656 Cl  0  0  0  0  0  0  0  0  0  0  0  0
   -0.3442   -0.8952   -1.3905 C   0  0  0  0  0  0  0  0  0  0  0  0
   -0.8421   -1.3597   -0.0831 N   0  0  0  0  0  0  0  0  0  0  0  0
   -0.4597   -2.5216    0.5893 C   0  0  0  0  0  0  0  0  0  0  0  0
    0.2255   -2.4917    1.6074 O   0  0  0  0  0  0  0  0  0  0  0  0
   -1.0290   -3.6880    0.1288 O   0  0  0  0  0  0  0  0  0  0  0  0
   -2.2445   -3.4881   -0.5642 C   0  0  1  0  0  0  0  0  0  0  0  0
   -3.1428   -2.5446    0.2263 C   0  0  0  0  0  0  0  0  0  0  0  0
   -3.3068   -2.6079    1.4465 O   0  0  0  0  0  0  0  0  0  0  0  0
   -3.7003   -1.4234   -0.5771 C   0  0  0  0  0  0  0  0  0  0  0  0
   -3.4641    0.0000    0.0000 C   0  0  0  0  0  0  0  0  0  0  0  0
   -4.3301    0.5000    0.0000 C   0  0  0  0  0  0  0  0  0  0  0  0
   -2.4159    0.3283    0.5548 O   0  0  0  0  0  0  0  0  0  0  0  0
   -3.0436   -4.6040   -1.2181 C   0  0  0  0  0  0  0  0  0  0  0  0
   -3.3630   -4.4521   -2.4062 O   0  0  0  0  0  0  0  0  0  0  0  0
   -3.4243   -5.8523   -0.4578 C   0  0  2  0  0  0  0  0  0  0  0  0
   -2.1751   -6.6135    0.0123 C   0  0  0  0  0  0  0  0  0  0  0  0
   -1.1389   -6.8100   -1.0939 C   0  0  0  0  0  0  0  0  0  0  0  0
   -0.1092   -7.6868   -0.6502 O   0  0  0  0  0  0  0  0  0  0  0  0
   -4.3946   -5.5756    0.6887 C   0  0  0  0  0  0  0  0  0  0  0  0
   -4.0440   -5.6875    1.8673 O   0  0  0  0  0  0  0  0  0  0  0  0
   -5.7553   -5.0046    0.3856 C   0  0  0  0  0  0  0  0  0  0  0  0
   -6.1450   -3.9038    1.1822 C   0  0  0  0  0  0  0  0  0  0  0  0
   -7.3430   -3.2363    0.9484 C   0  0  0  0  0  0  0  0  0  0  0  0
   -8.1773   -3.6934   -0.0569 C   0  0  0  0  0  0  0  0  0  0  0  0
   -7.8076   -4.8165   -0.8081 C   0  0  0  0  0  0  0  0  0  0  0  0
   -6.5956   -5.5245   -0.6298 C   0  0  0  0  0  0  0  0  0  0  0  0
   -6.3496   -6.5597   -1.3319 O   0  5  0  0  0  0  0  0  0  0  0  0
   -0.4462    0.5060   -1.5632 C   0  0  0  0  0  0  0  0  0  0  0  0
   -1.7346    1.1498   -2.5139 Cl  0  0  0  0  0  0  0  0  0  0  0  0
    1.8788    3.1993    0.3641 H   0  0  0  0  0  0  0  0  0  0  0  0
    0.9606    4.5190   -0.3336 H   0  0  0  0  0  0  0  0  0  0  0  0
    2.0898    3.6321   -1.3717 H   0  0  0  0  0  0  0  0  0  0  0  0
    2.3070    1.1751    0.1900 H   0  0  0  0  0  0  0  0  0  0  0  0
    3.7290   -1.1025    1.0742 H   0  0  0  0  0  0  0  0  0  0  0  0
    4.0982   -1.7273   -0.5553 H   0  0  0  0  0  0  0  0  0  0  0  0
    4.3907   -0.4650    0.0000 H   0  0  0  0  0  0  0  0  0  0  0  0
   -0.9809   -0.5794    0.5657 H   0  0  0  0  0  0  0  0  0  0  0  0
   -1.9258   -2.9560   -1.4696 H   0  0  0  0  0  0  0  0  0  0  0  0
   -3.3659   -1.4434   -1.6228 H   0  0  0  0  0  0  0  0  0  0  0  0
   -4.7804   -1.6440   -0.6056 H   0  0  0  0  0  0  0  0  0  0  0  0
   -3.9924    1.4806    0.4273 H   0  0  0  0  0  0  0  0  0  0  0  0
   -4.3741    0.6855   -1.1033 H   0  0  0  0  0  0  0  0  0  0  0  0
   -5.2567    1.0350    0.0000 H   0  0  0  0  0  0  0  0  0  0  0  0
   -3.9037   -6.5210   -1.1757 H   0  0  0  0  0  0  0  0  0  0  0  0
   -2.4802   -7.5974    0.3929 H   0  0  0  0  0  0  0  0  0  0  0  0
   -1.7011   -6.1158    0.8671 H   0  0  0  0  0  0  0  0  0  0  0  0
   -1.5906   -7.2392   -1.9930 H   0  0  0  0  0  0  0  0  0  0  0  0
   -0.6637   -5.8647   -1.3737 H   0  0  0  0  0  0  0  0  0  0  0  0
    0.1972   -7.3502    0.2099 H   0  0  0  0  0  0  0  0  0  0  0  0
   -5.4990   -3.5650    1.9882 H   0  0  0  0  0  0  0  0  0  0  0  0
   -7.6233   -2.3803    1.5526 H   0  0  0  0  0  0  0  0  0  0  0  0
   -9.1262   -3.2071   -0.2561 H   0  0  0  0  0  0  0  0  0  0  0  0
   -8.5023   -5.1783   -1.5687 H   0  0  0  0  0  0  0  0  0  0  0  0
  1  2  1  0  0  0  0
  1 39  1  0  0  0  0
  1 40  1  0  0  0  0
  1 41  1  0  0  0  0
  2  3  1  0  0  0  0
  3 37  2  0  0  0  0
  3  4  1  0  0  0  0
  4  5  2  0  0  0  0
  4 42  1  0  0  0  0
  5  6  1  0  0  0  0
  5  8  1  0  0  0  0
  6  7  1  0  0  0  0
  7 43  1  0  0  0  0
  7 44  1  0  0  0  0
  7 45  1  0  0  0  0
  8  9  1  0  0  0  0
  8 10  2  0  0  0  0
 10 11  1  0  0  0  0
 10 37  1  0  0  0  0
 11 12  1  0  0  0  0
 11 46  1  0  0  0  0
 12 13  2  0  0  0  0
 12 14  1  0  0  0  0
 15 14  1  0  0  0  0
 15 16  1  0  0  0  0
 15 22  1  0  0  0  0
 15 47  1  1  0  0  0
 16 17  2  0  0  0  0
 16 18  1  0  0  0  0
 18 19  1  0  0  0  0
 18 48  1  0  0  0  0
 18 49  1  0  0  0  0
 19 20  1  0  0  0  0
 19 21  2  0  0  0  0
 20 50  1  0  0  0  0
 20 51  1  0  0  0  0
 20 52  1  0  0  0  0
 22 23  2  0  0  0  0
 22 24  1  0  0  0  0
 24 25  1  0  0  0  0
 24 28  1  0  0  0  0
 24 53  1  1  0  0  0
 25 26  1  0  0  0  0
 25 54  1  0  0  0  0
 25 55  1  0  0  0  0
 26 27  1  0  0  0  0
 26 56  1  0  0  0  0
 26 57  1  0  0  0  0
 27 58  1  0  0  0  0
 28 29  2  0  0  0  0
 28 30  1  0  0  0  0
 30 35  2  0  0  0  0
 30 31  1  0  0  0  0
 31 32  2  0  0  0  0
 31 59  1  0  0  0  0
 32 33  1  0  0  0  0
 32 60  1  0  0  0  0
 33 34  2  0  0  0  0
 33 61  1  0  0  0  0
 34 35  1  0  0  0  0
 34 62  1  0  0  0  0
 35 36  1  0  0  0  0
 37 38  1  0  0  0  0
M  CHG  1  36  -1
M  END
$$$$
