
 OpenBabel03202621392D

 19 18  0  0  0  0  0  0  0  0999 V2000
    4.3301   -1.5000    0.0000 C   0  0  0  0  0  0  0  0  0  0  0  0
    4.3301   -0.5000    0.0000 S   0  0  0  0  0  0  0  0  0  0  0  0
    2.8473    0.2628   -0.5048 C   0  0  0  0  0  0  0  0  0  0  0  0
    2.8738    1.4100   -0.9335 O   0  0  0  0  0  0  0  0  0  0  0  0
    1.5690   -0.5469   -0.4180 C   0  0  0  0  0  0  0  0  0  0  0  0
    0.3782    0.3515   -0.0801 C   0  0  0  0  0  0  0  0  0  0  0  0
   -0.9100   -0.4597    0.0235 C   0  0  0  0  0  0  0  0  0  0  0  0
   -2.0129    0.3940    0.4414 N   0  0  0  0  0  0  0  0  0  0  0  0
    4.0040   -1.6791    1.0440 H   0  0  0  0  0  0  0  0  0  0  0  0
    5.4225   -1.6712   -0.0438 H   0  0  0  0  0  0  0  0  0  0  0  0
    4.3301   -2.5700    0.0000 H   0  0  0  0  0  0  0  0  0  0  0  0
    1.4184   -1.0398   -1.3845 H   0  0  0  0  0  0  0  0  0  0  0  0
    1.6548   -1.3200    0.3527 H   0  0  0  0  0  0  0  0  0  0  0  0
    0.5739    0.8719    0.8671 H   0  0  0  0  0  0  0  0  0  0  0  0
    0.2650    1.1291   -0.8469 H   0  0  0  0  0  0  0  0  0  0  0  0
   -0.7914   -1.2680    0.7530 H   0  0  0  0  0  0  0  0  0  0  0  0
   -1.1458   -0.9152   -0.9445 H   0  0  0  0  0  0  0  0  0  0  0  0
   -2.1229    1.1695   -0.2118 H   0  0  0  0  0  0  0  0  0  0  0  0
   -2.8854   -0.1320    0.4115 H   0  0  0  0  0  0  0  0  0  0  0  0
  1  2  1  0  0  0  0
  1  9  1  0  0  0  0
  1 10  1  0  0  0  0
  1 11  1  0  0  0  0
  2  3  1  0  0  0  0
  3  4  2  0  0  0  0
  3  5  1  0  0  0  0
  5  6  1  0  0  0  0
  5 12  1  0  0  0  0
  5 13  1  0  0  0  0
  6  7  1  0  0  0  0
  6 14  1  0  0  0  0
  6 15  1  0  0  0  0
  7  8  1  0  0  0  0
  7 16  1  0  0  0  0
  7 17  1  0  0  0  0
  8 18  1  0  0  0  0
  8 19  1  0  0  0  0
M  END
$$$$
