
 OpenBabel03202621282D

 13 13  0  0  0  0  0  0  0  0999 V2000
    4.8212    1.6264    0.0000 C   0  0  0  0  0  0  0  0  0  0  0  0
    4.0780    2.2956    0.0000 C   0  0  0  0  0  0  0  0  0  0  0  0
    4.2859    3.2737    0.0000 O   0  0  0  0  0  0  0  0  0  0  0  0
    3.1270    1.9865    0.0000 S   0  0  0  0  0  0  0  0  0  0  0  0
    2.9190    1.0084    0.0000 C   0  0  0  0  0  0  0  0  0  0  0  0
    1.9680    0.6994    0.0000 C   0  0  0  0  0  0  0  0  0  0  0  0
    1.7601   -0.2788    0.0000 C   0  0  0  0  0  0  0  0  0  0  0  0
    0.8090   -0.5878    0.0000 N   0  0  0  0  0  0  0  0  0  0  0  0
    0.5000   -1.5388    0.0000 C   0  0  0  0  0  0  0  0  0  0  0  0
   -0.5000   -1.5388    0.0000 C   0  0  0  0  0  0  0  0  0  0  0  0
   -1.0878   -2.3479    0.0000 C   0  0  0  0  0  0  0  0  0  0  0  0
   -0.8090   -0.5878    0.0000 N   0  0  0  0  0  0  0  0  0  0  0  0
   -0.0000   -0.0000    0.0000 N   0  0  0  0  0  0  0  0  0  0  0  0
  1  2  1  0  0  0  0
  2  3  2  0  0  0  0
  2  4  1  0  0  0  0
  4  5  1  0  0  0  0
  5  6  1  0  0  0  0
  6  7  1  0  0  0  0
  7  8  1  0  0  0  0
  8 13  1  0  0  0  0
  8  9  1  0  0  0  0
  9 10  2  0  0  0  0
 10 11  1  0  0  0  0
 10 12  1  0  0  0  0
 12 13  2  0  0  0  0
M  END
$$$$
