
 OpenBabel03202621402D

 25 25  0  0  1  0  0  0  0  0999 V2000
    0.8090    1.5878    0.0000 C   0  0  0  0  0  0  0  0  0  0  0  0
    0.8090    0.5878    0.0000 C   0  0  0  0  0  0  0  0  0  0  0  0
    1.8168   -0.3331    0.1685 C   0  0  0  0  0  0  0  0  0  0  0  0
    1.2457   -1.5653    0.0690 N   0  0  0  0  0  0  0  0  0  0  0  0
    1.8878   -2.8678    0.1156 C   0  0  0  0  0  0  0  0  0  0  0  0
    3.3712   -2.7135   -0.1625 C   0  0  0  0  0  0  0  0  0  0  0  0
    4.2715   -3.8811    0.1788 C   0  0  1  0  0  0  0  0  0  0  0  0
    3.9444   -5.0598   -0.6325 N   0  0  0  0  0  0  0  0  0  0  0  0
    5.7397   -3.4654   -0.0384 C   0  0  0  0  0  0  0  0  0  0  0  0
    6.6685   -4.2412   -0.2210 O   0  0  0  0  0  0  0  0  0  0  0  0
    5.9693   -2.1409    0.0604 O   0  0  0  0  0  0  0  0  0  0  0  0
   -0.0769   -1.4696   -0.0605 N   0  0  0  0  0  0  0  0  0  0  0  0
   -0.3589   -0.1797   -0.0839 N   0  0  0  0  0  0  0  0  0  0  0  0
    1.6637    1.7855   -0.6955 H   0  0  0  0  0  0  0  0  0  0  0  0
   -0.1049    1.8115   -0.6066 H   0  0  0  0  0  0  0  0  0  0  0  0
    0.8090    2.6578    0.0000 H   0  0  0  0  0  0  0  0  0  0  0  0
    2.8750   -0.1638    0.3075 H   0  0  0  0  0  0  0  0  0  0  0  0
    1.3953   -3.5126   -0.6218 H   0  0  0  0  0  0  0  0  0  0  0  0
    1.7015   -3.2668    1.1182 H   0  0  0  0  0  0  0  0  0  0  0  0
    3.5202   -2.3812   -1.2003 H   0  0  0  0  0  0  0  0  0  0  0  0
    3.7316   -1.9053    0.4784 H   0  0  0  0  0  0  0  0  0  0  0  0
    4.1720   -4.1276    1.2415 H   0  0  0  0  0  0  0  0  0  0  0  0
    3.1058   -5.5125   -0.2741 H   0  0  0  0  0  0  0  0  0  0  0  0
    4.7010   -5.7411   -0.5167 H   0  0  0  0  0  0  0  0  0  0  0  0
    6.9282   -2.0317   -0.1033 H   0  0  0  0  0  0  0  0  0  0  0  0
  1  2  1  0  0  0  0
  1 14  1  0  0  0  0
  1 15  1  0  0  0  0
  1 16  1  0  0  0  0
  2 13  1  0  0  0  0
  2  3  2  0  0  0  0
  3  4  1  0  0  0  0
  3 17  1  0  0  0  0
  4  5  1  0  0  0  0
  4 12  1  0  0  0  0
  5  6  1  0  0  0  0
  5 18  1  0  0  0  0
  5 19  1  0  0  0  0
  6  7  1  0  0  0  0
  6 20  1  0  0  0  0
  6 21  1  0  0  0  0
  7  8  1  0  0  0  0
  7  9  1  0  0  0  0
  7 22  1  1  0  0  0
  8 23  1  0  0  0  0
  8 24  1  0  0  0  0
  9 10  2  0  0  0  0
  9 11  1  0  0  0  0
 11 25  1  0  0  0  0
 12 13  2  0  0  0  0
M  END
$$$$
