
 OpenBabel03202621322D

 23 24  0  0  0  0  0  0  0  0999 V2000
    1.0934    1.6637    0.0000 C   0  0  0  0  0  0  0  0  0  0  0  0
    1.8366    0.9945    0.0000 N   0  0  0  0  0  0  0  0  0  0  0  0
    3.2145    1.1649    0.0000 C   0  0  0  0  0  0  0  0  0  0  0  0
    3.9753    2.7391   -0.0000 S   0  0  0  0  0  0  0  0  0  0  0  0
    5.6757    2.3388   -0.0000 C   0  0  0  0  0  0  0  0  0  0  0  0
    6.5257    3.2202    0.0000 O   0  0  0  0  0  0  0  0  0  0  0  0
    3.8252    0.0097   -0.0000 N   0  0  0  0  0  0  0  0  0  0  0  0
    2.8665   -0.9669   -0.0000 N   0  0  0  0  0  0  0  0  0  0  0  0
    1.6600   -0.4159   -0.0000 C   0  0  0  0  0  0  0  0  0  0  0  0
    0.3739   -1.2324   -0.0000 C   0  0  0  0  0  0  0  0  0  0  0  0
    0.4956   -2.6253   -0.0000 C   0  0  0  0  0  0  0  0  0  0  0  0
   -0.6401   -3.4298    0.0000 C   0  0  0  0  0  0  0  0  0  0  0  0
   -1.9046   -2.9595    0.0000 N   0  0  0  0  0  0  0  0  0  0  0  0
   -2.0370   -1.6303   -0.0000 C   0  0  0  0  0  0  0  0  0  0  0  0
   -0.9566   -0.7552   -0.0000 C   0  0  0  0  0  0  0  0  0  0  0  0
    1.4653    2.6960    0.0000 H   0  0  0  0  0  0  0  0  0  0  0  0
    0.1241    1.2330    0.0000 H   0  0  0  0  0  0  0  0  0  0  0  0
    0.2982    2.3797    0.0000 H   0  0  0  0  0  0  0  0  0  0  0  0
    5.9683    1.2790    0.0000 H   0  0  0  0  0  0  0  0  0  0  0  0
    1.4743   -3.1039    0.0000 H   0  0  0  0  0  0  0  0  0  0  0  0
   -0.5630   -4.5082    0.0000 H   0  0  0  0  0  0  0  0  0  0  0  0
   -3.0557   -1.2483   -0.0000 H   0  0  0  0  0  0  0  0  0  0  0  0
   -1.2823    0.2743   -0.0000 H   0  0  0  0  0  0  0  0  0  0  0  0
  1  2  1  0  0  0  0
  1 16  1  0  0  0  0
  1 17  1  0  0  0  0
  1 18  1  0  0  0  0
  2  9  1  0  0  0  0
  2  3  1  0  0  0  0
  3  4  1  0  0  0  0
  3  7  2  0  0  0  0
  4  5  1  0  0  0  0
  5  6  2  0  0  0  0
  5 19  1  0  0  0  0
  7  8  1  0  0  0  0
  8  9  2  0  0  0  0
  9 10  1  0  0  0  0
 10 15  2  0  0  0  0
 10 11  1  0  0  0  0
 11 12  2  0  0  0  0
 11 20  1  0  0  0  0
 12 13  1  0  0  0  0
 12 21  1  0  0  0  0
 13 14  2  0  0  0  0
 14 15  1  0  0  0  0
 14 22  1  0  0  0  0
 15 23  1  0  0  0  0
M  END
$$$$
