
 OpenBabel03202621392D

 58 59  0  0  1  0  0  0  0  0999 V2000
    2.5411    0.5878    0.0000 C   0  0  0  0  0  0  0  0  0  0  0  0
    2.5411    1.5878    0.0000 C   0  0  3  0  0  0  0  0  0  0  0  0
    3.1990    2.6969    0.9691 C   0  0  0  0  0  0  0  0  0  0  0  0
    4.1655    3.6066    0.1591 C   0  0  0  0  0  0  0  0  0  0  0  0
    3.8167    4.0470   -0.9509 O   0  0  0  0  0  0  0  0  0  0  0  0
    5.5315    4.0524    0.7058 C   0  0  2  0  0  0  0  0  0  0  0  0
    5.9120    5.0979   -0.1825 O   0  0  0  0  0  0  0  0  0  0  0  0
    6.5511    2.9045    0.9489 C   0  0  0  0  0  0  0  0  0  0  0  0
    6.1454    1.9096    1.5692 O   0  0  0  0  0  0  0  0  0  0  0  0
    8.0700    3.0138    0.6255 C   0  0  2  0  0  0  0  0  0  0  0  0
    8.4960    4.4068    0.0758 C   0  0  0  0  0  0  0  0  0  0  0  0
    9.9411    4.8560    0.2897 C   0  0  0  0  0  0  0  0  0  0  0  0
   10.8942    4.2881   -0.5959 O   0  0  0  0  0  0  0  0  0  0  0  0
    8.6679    1.8885   -0.2541 C   0  0  0  0  0  0  0  0  0  0  0  0
    9.4878    2.1631   -1.1429 O   0  0  0  0  0  0  0  0  0  0  0  0
    8.4053    0.4223   -0.0628 C   0  0  0  0  0  0  0  0  0  0  0  0
    7.1060   -0.0831   -0.1952 C   0  0  0  0  0  0  0  0  0  0  0  0
    6.8663   -1.4617   -0.1709 C   0  0  0  0  0  0  0  0  0  0  0  0
    7.9222   -2.3596   -0.0871 C   0  0  0  0  0  0  0  0  0  0  0  0
    9.2298   -1.8852   -0.0027 C   0  0  0  0  0  0  0  0  0  0  0  0
    9.4681   -0.4993    0.0126 C   0  0  0  0  0  0  0  0  0  0  0  0
   10.7634   -0.0714    0.0991 O   0  0  0  0  0  0  0  0  0  0  0  0
    1.6869    1.9519   -1.0743 N   0  0  0  0  0  0  0  0  0  0  0  0
    0.8090    1.5878    0.0000 C   0  0  1  0  0  0  0  0  0  0  0  0
   -0.0570    2.0878    0.0000 C   0  0  0  0  0  0  0  0  0  0  0  0
    0.8090    0.5878    0.0000 C   0  0  0  0  0  0  0  0  0  0  0  0
    0.5062   -0.4277   -1.1634 C   0  0  0  0  0  0  0  0  0  0  0  0
    0.1364   -1.6571   -0.6800 C   0  0  0  0  0  0  0  0  0  0  0  0
    0.0178   -1.5450    0.6706 N   0  0  0  0  0  0  0  0  0  0  0  0
    0.3699   -0.2836    1.0886 C   0  0  0  0  0  0  0  0  0  0  0  0
    2.8764    0.4087    1.0704 H   0  0  0  0  0  0  0  0  0  0  0  0
    3.4841    0.2593   -0.5631 H   0  0  0  0  0  0  0  0  0  0  0  0
    2.5411   -0.4822    0.0000 H   0  0  0  0  0  0  0  0  0  0  0  0
    3.3913    1.8221   -0.6820 H   0  0  0  0  0  0  0  0  0  0  0  0
    2.4373    3.3518    1.4041 H   0  0  0  0  0  0  0  0  0  0  0  0
    3.7468    2.2269    1.7880 H   0  0  0  0  0  0  0  0  0  0  0  0
    5.3544    4.5241    1.6755 H   0  0  0  0  0  0  0  0  0  0  0  0
    5.4709    4.9404   -1.0413 H   0  0  0  0  0  0  0  0  0  0  0  0
    8.5611    2.9164    1.6038 H   0  0  0  0  0  0  0  0  0  0  0  0
    7.9342    5.1694    0.6168 H   0  0  0  0  0  0  0  0  0  0  0  0
    8.2478    4.4692   -0.9934 H   0  0  0  0  0  0  0  0  0  0  0  0
    9.9894    5.9370    0.1096 H   0  0  0  0  0  0  0  0  0  0  0  0
   10.2680    4.6789    1.3149 H   0  0  0  0  0  0  0  0  0  0  0  0
   10.5875    3.3903   -0.8507 H   0  0  0  0  0  0  0  0  0  0  0  0
    6.2541    0.5716   -0.3533 H   0  0  0  0  0  0  0  0  0  0  0  0
    5.8455   -1.8314   -0.2553 H   0  0  0  0  0  0  0  0  0  0  0  0
    7.7331   -3.4310   -0.1020 H   0  0  0  0  0  0  0  0  0  0  0  0
   10.0455   -2.5938    0.0371 H   0  0  0  0  0  0  0  0  0  0  0  0
   11.3548   -0.8056   -0.1611 H   0  0  0  0  0  0  0  0  0  0  0  0
    1.8005    2.9444   -1.3151 H   0  0  0  0  0  0  0  0  0  0  0  0
    0.8090    2.6578    0.0000 H   0  0  0  0  0  0  0  0  0  0  0  0
   -0.4631    1.9688    1.0671 H   0  0  0  0  0  0  0  0  0  0  0  0
   -0.7171    1.6547   -0.8345 H   0  0  0  0  0  0  0  0  0  0  0  0
   -0.9836    2.6228    0.0000 H   0  0  0  0  0  0  0  0  0  0  0  0
    0.5996   -0.1572   -2.2114 H   0  0  0  0  0  0  0  0  0  0  0  0
   -0.1116   -2.5764   -1.1933 H   0  0  0  0  0  0  0  0  0  0  0  0
   -0.3637   -2.2629    1.2725 H   0  0  0  0  0  0  0  0  0  0  0  0
    0.2038   -0.0251    2.1286 H   0  0  0  0  0  0  0  0  0  0  0  0
  1  2  1  0  0  0  0
  1 31  1  0  0  0  0
  1 32  1  0  0  0  0
  1 33  1  0  0  0  0
  2  3  1  0  0  0  0
  2 23  1  0  0  0  0
  2 34  1  0  0  0  0
  3  4  1  0  0  0  0
  3 35  1  0  0  0  0
  3 36  1  0  0  0  0
  4  5  2  0  0  0  0
  4  6  1  0  0  0  0
  6  7  1  0  0  0  0
  6  8  1  0  0  0  0
  6 37  1  1  0  0  0
  7 38  1  0  0  0  0
  8  9  2  0  0  0  0
  8 10  1  0  0  0  0
 10 11  1  0  0  0  0
 10 14  1  0  0  0  0
 10 39  1  1  0  0  0
 11 12  1  0  0  0  0
 11 40  1  0  0  0  0
 11 41  1  0  0  0  0
 12 13  1  0  0  0  0
 12 42  1  0  0  0  0
 12 43  1  0  0  0  0
 13 44  1  0  0  0  0
 14 15  2  0  0  0  0
 14 16  1  0  0  0  0
 16 21  2  0  0  0  0
 16 17  1  0  0  0  0
 17 18  2  0  0  0  0
 17 45  1  0  0  0  0
 18 19  1  0  0  0  0
 18 46  1  0  0  0  0
 19 20  2  0  0  0  0
 19 47  1  0  0  0  0
 20 21  1  0  0  0  0
 20 48  1  0  0  0  0
 21 22  1  0  0  0  0
 22 49  1  0  0  0  0
 23 24  1  0  0  0  0
 23 50  1  0  0  0  0
 24 25  1  0  0  0  0
 24 26  1  0  0  0  0
 24 51  1  1  0  0  0
 25 52  1  0  0  0  0
 25 53  1  0  0  0  0
 25 54  1  0  0  0  0
 26 30  2  0  0  0  0
 26 27  1  0  0  0  0
 27 28  2  0  0  0  0
 27 55  1  0  0  0  0
 28 29  1  0  0  0  0
 28 56  1  0  0  0  0
 29 30  1  0  0  0  0
 29 57  1  0  0  0  0
 30 58  1  0  0  0  0
M  END
$$$$
