
 OpenBabel03202621282D

 14 14  0  0  1  0  0  0  0  0999 V2000
    2.4013   -1.0181    0.0000 C   0  0  0  0  0  0  0  0  0  0  0  0
    2.9890   -0.2091    0.0000 C   0  0  0  0  0  0  0  0  0  0  0  0
    2.5823    0.7045    0.0000 C   0  0  2  0  0  0  0  0  0  0  0  0
    3.1701    1.5135    0.0000 C   0  0  0  0  0  0  0  0  0  0  0  0
    1.5878    0.8090    0.0000 C   0  0  1  0  0  0  0  0  0  0  0  0
    1.1810    1.7226    0.0000 C   0  0  0  0  0  0  0  0  0  0  0  0
    1.7688    2.5316    0.0000 O   0  0  0  0  0  0  0  0  0  0  0  0
    0.1865    1.8271    0.0000 O   0  0  0  0  0  0  0  0  0  0  0  0
    1.0000   -0.0000    0.0000 N   0  0  0  0  0  0  0  0  0  0  0  0
    1.3090   -0.9511    0.0000 C   0  0  0  0  0  0  0  0  0  0  0  0
    0.5000   -1.5388    0.0000 C   0  0  0  0  0  0  0  0  0  0  0  0
    0.5000   -2.5388    0.0000 C   0  0  0  0  0  0  0  0  0  0  0  0
   -0.3090   -0.9511    0.0000 N   0  0  0  0  0  0  0  0  0  0  0  0
    0.0000    0.0000    0.0000 N   0  0  0  0  0  0  0  0  0  0  0  0
  1  2  1  0  0  0  0
  2  3  1  0  0  0  0
  3  4  1  1  0  0  0
  3  5  1  0  0  0  0
  5  6  1  6  0  0  0
  5  9  1  0  0  0  0
  6  7  2  0  0  0  0
  6  8  1  0  0  0  0
  9 14  1  0  0  0  0
  9 10  1  0  0  0  0
 10 11  2  0  0  0  0
 11 12  1  0  0  0  0
 11 13  1  0  0  0  0
 13 14  2  0  0  0  0
M  END
$$$$
