
 OpenBabel03202621372D

 33 35  0  0  1  0  0  0  0  0999 V2000
   -0.8687    1.2592   -1.9382 O   0  5  0  0  0  0  0  0  0  0  0  0
   -1.4842    1.6706   -0.9085 C   0  0  0  0  0  0  0  0  0  0  0  0
   -2.1709    0.9660    0.0116 C   0  0  0  0  0  0  0  0  0  0  0  0
   -2.9766    1.4714    1.0033 O   0  0  0  0  0  0  0  0  0  0  0  0
   -3.4093    2.7999    0.6965 C   0  0  0  0  0  0  0  0  0  0  0  0
   -2.2244    3.7170    0.4679 C   0  0  0  0  0  0  0  0  0  0  0  0
   -1.4343    3.1993   -0.7428 C   0  0  3  0  0  0  0  0  0  0  0  0
   -0.0730    3.7930   -0.8316 N   0  0  0  0  0  0  0  0  0  0  0  0
    0.8592    3.3743    0.2234 C   0  0  0  0  0  0  0  0  0  0  0  0
    1.7853    2.2674   -0.2049 C   0  0  1  0  0  0  0  0  0  0  0  0
    3.0381    1.9298    0.6115 C   0  0  0  0  0  0  0  0  0  0  0  0
    1.8161    0.9983    0.5405 C   0  0  1  0  0  0  0  0  0  0  0  0
    1.7992   -0.3393   -0.2059 C   0  0  0  0  0  0  0  0  0  0  0  0
    2.5200   -1.5766    0.2656 C   0  0  0  0  0  0  0  0  0  0  0  0
    1.0240   -1.5211    0.3313 C   0  0  0  0  0  0  0  0  0  0  0  0
   -2.1751   -0.1161    0.0281 H   0  0  0  0  0  0  0  0  0  0  0  0
   -4.0811    2.7749   -0.1721 H   0  0  0  0  0  0  0  0  0  0  0  0
   -4.0009    3.1576    1.5461 H   0  0  0  0  0  0  0  0  0  0  0  0
   -1.6202    3.7351    1.3788 H   0  0  0  0  0  0  0  0  0  0  0  0
   -2.5654    4.7435    0.2834 H   0  0  0  0  0  0  0  0  0  0  0  0
   -1.9698    3.6050   -1.6175 H   0  0  0  0  0  0  0  0  0  0  0  0
    0.2498    3.3519   -1.7006 H   0  0  0  0  0  0  0  0  0  0  0  0
    1.4861    4.2474    0.4405 H   0  0  0  0  0  0  0  0  0  0  0  0
    0.3636    3.1290    1.1675 H   0  0  0  0  0  0  0  0  0  0  0  0
    1.8995    2.2225   -1.2832 H   0  0  0  0  0  0  0  0  0  0  0  0
    3.7910    2.3604   -0.0915 H   0  0  0  0  0  0  0  0  0  0  0  0
    3.8249    1.1425    0.6642 H   0  0  0  0  0  0  0  0  0  0  0  0
    1.2343    0.9721    1.4626 H   0  0  0  0  0  0  0  0  0  0  0  0
    1.7265   -0.2234   -1.2897 H   0  0  0  0  0  0  0  0  0  0  0  0
    3.0711   -1.5213    1.1953 H   0  0  0  0  0  0  0  0  0  0  0  0
    2.9667   -2.2099   -0.4902 H   0  0  0  0  0  0  0  0  0  0  0  0
    0.5457   -1.4111    1.2967 H   0  0  0  0  0  0  0  0  0  0  0  0
    0.4336   -2.0723   -0.3922 H   0  0  0  0  0  0  0  0  0  0  0  0
  1  2  1  0  0  0  0
  2  7  1  0  0  0  0
  2  3  2  0  0  0  0
  3  4  1  0  0  0  0
  3 16  1  0  0  0  0
  4  5  1  0  0  0  0
  5  6  1  0  0  0  0
  5 17  1  0  0  0  0
  5 18  1  0  0  0  0
  6  7  1  0  0  0  0
  6 19  1  0  0  0  0
  6 20  1  0  0  0  0
  7  8  1  0  0  0  0
  7 21  1  0  0  0  0
  8  9  1  0  0  0  0
  8 22  1  0  0  0  0
  9 23  1  0  0  0  0
  9 24  1  0  0  0  0
 10  9  1  0  0  0  0
 10 11  1  0  0  0  0
 10 12  1  0  0  0  0
 10 25  1  6  0  0  0
 11 12  1  0  0  0  0
 11 26  1  0  0  0  0
 11 27  1  0  0  0  0
 12 13  1  0  0  0  0
 12 28  1  6  0  0  0
 13 15  1  0  0  0  0
 13 14  1  0  0  0  0
 13 29  1  0  0  0  0
 14 15  1  0  0  0  0
 14 30  1  0  0  0  0
 14 31  1  0  0  0  0
 15 32  1  0  0  0  0
 15 33  1  0  0  0  0
M  CHG  1   1  -1
M  END
$$$$
