
 OpenBabel03202621322D

 22 22  0  0  1  0  0  0  0  0999 V2000
    2.5543    1.2586    0.0000 C   0  0  0  0  0  0  0  0  0  0  0  0
    1.6207    1.6170    0.0000 S   0  0  0  0  0  0  0  0  0  0  0  0
    0.4123    0.9914    0.8904 C   0  0  0  0  0  0  0  0  0  0  0  0
   -0.6650    1.3733    1.2488 O   0  0  0  0  0  0  0  0  0  0  0  0
    1.0000    0.0000    0.0000 C   0  0  2  0  0  0  0  0  0  0  0  0
    1.9991   -0.0432    0.0000 C   0  0  0  0  0  0  0  0  0  0  0  0
    0.4433   -1.4350    0.7036 C   0  0  0  0  0  0  0  0  0  0  0  0
   -0.7208   -1.9461   -0.1019 C   0  0  0  0  0  0  0  0  0  0  0  0
   -1.0675   -0.7745   -0.9646 C   0  0  0  0  0  0  0  0  0  0  0  0
    0.1976   -0.1530   -1.2718 O   0  0  0  0  0  0  0  0  0  0  0  0
    2.9649    1.8531    0.8706 H   0  0  0  0  0  0  0  0  0  0  0  0
    2.9491    1.8371   -0.8866 H   0  0  0  0  0  0  0  0  0  0  0  0
    3.5532    0.8751    0.0000 H   0  0  0  0  0  0  0  0  0  0  0  0
    2.1729   -0.8584   -0.7961 H   0  0  0  0  0  0  0  0  0  0  0  0
    2.2554   -0.5765    1.0159 H   0  0  0  0  0  0  0  0  0  0  0  0
    3.0681   -0.0894    0.0000 H   0  0  0  0  0  0  0  0  0  0  0  0
    1.2142   -2.2273    0.6638 H   0  0  0  0  0  0  0  0  0  0  0  0
    0.2040   -1.3071    1.7687 H   0  0  0  0  0  0  0  0  0  0  0  0
   -0.3861   -2.7842   -0.7270 H   0  0  0  0  0  0  0  0  0  0  0  0
   -1.5398   -2.3099    0.5235 H   0  0  0  0  0  0  0  0  0  0  0  0
   -1.5710   -1.0785   -1.8849 H   0  0  0  0  0  0  0  0  0  0  0  0
   -1.7204   -0.0742   -0.4341 H   0  0  0  0  0  0  0  0  0  0  0  0
  1  2  1  0  0  0  0
  1 11  1  0  0  0  0
  1 12  1  0  0  0  0
  1 13  1  0  0  0  0
  2  3  1  0  0  0  0
  3  4  2  0  0  0  0
  5  3  1  6  0  0  0
  5 10  1  0  0  0  0
  5  6  1  0  0  0  0
  5  7  1  0  0  0  0
  6 14  1  0  0  0  0
  6 15  1  0  0  0  0
  6 16  1  0  0  0  0
  7  8  1  0  0  0  0
  7 17  1  0  0  0  0
  7 18  1  0  0  0  0
  8  9  1  0  0  0  0
  8 19  1  0  0  0  0
  8 20  1  0  0  0  0
  9 10  1  0  0  0  0
  9 21  1  0  0  0  0
  9 22  1  0  0  0  0
M  END
$$$$
