
 OpenBabel03202621392D

 27 27  0  0  1  0  0  0  0  0999 V2000
    2.5411    3.5878    0.0000 C   0  0  0  0  0  0  0  0  0  0  0  0
    1.6750    3.0878    0.0000 C   0  0  0  0  0  0  0  0  0  0  0  0
    1.3012    1.8892   -0.6014 C   0  0  2  0  0  0  0  0  0  0  0  0
   -0.1527    1.6812    0.0221 C   0  0  0  0  0  0  0  0  0  0  0  0
   -0.4643    0.2895    0.2092 N   0  0  0  0  0  0  0  0  0  0  0  0
    0.4008   -0.4678    0.9752 C   0  0  0  0  0  0  0  0  0  0  0  0
    1.3090   -0.9511    0.0000 C   0  0  0  0  0  0  0  0  0  0  0  0
    1.8968   -1.7601    0.0000 C   0  0  0  0  0  0  0  0  0  0  0  0
    0.5459   -0.7941   -1.2343 N   0  0  0  0  0  0  0  0  0  0  0  0
   -0.6511   -0.3281   -0.9585 N   0  0  0  0  0  0  0  0  0  0  0  0
    2.5411    1.5878    0.0000 O   0  0  0  0  0  0  0  0  0  0  0  0
    2.5411    0.5878    0.0000 C   0  0  0  0  0  0  0  0  0  0  0  0
    2.9649    3.3565    1.0248 H   0  0  0  0  0  0  0  0  0  0  0  0
    2.1953    4.6564    0.0986 H   0  0  0  0  0  0  0  0  0  0  0  0
    3.4678    4.1228    0.0000 H   0  0  0  0  0  0  0  0  0  0  0  0
    0.9026    3.7163   -0.5150 H   0  0  0  0  0  0  0  0  0  0  0  0
    1.2246    3.1300    1.0250 H   0  0  0  0  0  0  0  0  0  0  0  0
    1.3246    1.8742   -1.7016 H   0  0  0  0  0  0  0  0  0  0  0  0
   -0.3323    2.1218    1.0109 H   0  0  0  0  0  0  0  0  0  0  0  0
   -0.9031    2.1155   -0.6519 H   0  0  0  0  0  0  0  0  0  0  0  0
    0.3790   -0.4904    2.0553 H   0  0  0  0  0  0  0  0  0  0  0  0
    1.1569   -2.5579    0.2730 H   0  0  0  0  0  0  0  0  0  0  0  0
    2.1687   -1.9209   -1.0890 H   0  0  0  0  0  0  0  0  0  0  0  0
    2.5257   -2.6257    0.0000 H   0  0  0  0  0  0  0  0  0  0  0  0
    3.1581    0.4436    0.9219 H   0  0  0  0  0  0  0  0  0  0  0  0
    3.2730    0.4280   -0.8346 H   0  0  0  0  0  0  0  0  0  0  0  0
    2.5411   -0.4822    0.0000 H   0  0  0  0  0  0  0  0  0  0  0  0
  1  2  1  0  0  0  0
  1 13  1  0  0  0  0
  1 14  1  0  0  0  0
  1 15  1  0  0  0  0
  2 16  1  0  0  0  0
  2 17  1  0  0  0  0
  3  2  1  0  0  0  0
  3  4  1  0  0  0  0
  3 11  1  0  0  0  0
  3 18  1  6  0  0  0
  4  5  1  0  0  0  0
  4 19  1  0  0  0  0
  4 20  1  0  0  0  0
  5 10  1  0  0  0  0
  5  6  1  0  0  0  0
  6  7  2  0  0  0  0
  6 21  1  0  0  0  0
  7  8  1  0  0  0  0
  7  9  1  0  0  0  0
  8 22  1  0  0  0  0
  8 23  1  0  0  0  0
  8 24  1  0  0  0  0
  9 10  2  0  0  0  0
 11 12  1  0  0  0  0
 12 25  1  0  0  0  0
 12 26  1  0  0  0  0
 12 27  1  0  0  0  0
M  END
$$$$
