
 OpenBabel03202621282D

 30 31  0  0  1  0  0  0  0  0999 V2000
    2.5411    0.5878    0.0000 C   0  0  0  0  0  0  0  0  0  0  0  0
    2.5411    1.5878    0.0000 C   0  0  3  0  0  0  0  0  0  0  0  0
    3.4071    2.0878    0.0000 C   0  0  0  0  0  0  0  0  0  0  0  0
    4.2731    1.5878    0.0000 C   0  0  0  0  0  0  0  0  0  0  0  0
    4.2731    0.5878    0.0000 O   0  0  0  0  0  0  0  0  0  0  0  0
    5.1391    2.0878    0.0000 C   0  0  2  0  0  0  0  0  0  0  0  0
    5.1391    3.0878    0.0000 O   0  0  0  0  0  0  0  0  0  0  0  0
    6.0052    1.5878    0.0000 C   0  0  0  0  0  0  0  0  0  0  0  0
    6.0052    0.5878    0.0000 O   0  0  0  0  0  0  0  0  0  0  0  0
    6.8712    2.0878    0.0000 C   0  0  2  0  0  0  0  0  0  0  0  0
    6.8712    3.0878    0.0000 C   0  0  0  0  0  0  0  0  0  0  0  0
    7.7372    3.5878    0.0000 C   0  0  0  0  0  0  0  0  0  0  0  0
    8.6032    3.0878    0.0000 O   0  0  0  0  0  0  0  0  0  0  0  0
    7.7372    1.5878    0.0000 C   0  0  0  0  0  0  0  0  0  0  0  0
    8.6032    2.0878    0.0000 O   0  0  0  0  0  0  0  0  0  0  0  0
    7.7372    0.5878    0.0000 C   0  0  0  0  0  0  0  0  0  0  0  0
    6.8712    0.0878    0.0000 C   0  0  0  0  0  0  0  0  0  0  0  0
    6.8712   -0.9122    0.0000 C   0  0  0  0  0  0  0  0  0  0  0  0
    7.7372   -1.4122    0.0000 C   0  0  0  0  0  0  0  0  0  0  0  0
    8.6032   -0.9122    0.0000 C   0  0  0  0  0  0  0  0  0  0  0  0
    8.6032    0.0878    0.0000 C   0  0  0  0  0  0  0  0  0  0  0  0
    9.4693    0.5878    0.0000 O   0  0  0  0  0  0  0  0  0  0  0  0
    1.6750    2.0878    0.0000 N   0  0  0  0  0  0  0  0  0  0  0  0
    0.8090    1.5878    0.0000 C   0  0  1  0  0  0  0  0  0  0  0  0
   -0.0570    2.0878    0.0000 C   0  0  0  0  0  0  0  0  0  0  0  0
    0.8090    0.5878    0.0000 C   0  0  0  0  0  0  0  0  0  0  0  0
    1.6180   -0.0000    0.0000 C   0  0  0  0  0  0  0  0  0  0  0  0
    1.3090   -0.9511    0.0000 C   0  0  0  0  0  0  0  0  0  0  0  0
    0.3090   -0.9511    0.0000 N   0  0  0  0  0  0  0  0  0  0  0  0
    0.0000   -0.0000    0.0000 C   0  0  0  0  0  0  0  0  0  0  0  0
  1  2  1  0  0  0  0
  2  3  1  0  0  0  0
  2 23  1  0  0  0  0
  3  4  1  0  0  0  0
  4  5  2  0  0  0  0
  4  6  1  0  0  0  0
  6  7  1  6  0  0  0
  6  8  1  0  0  0  0
  8  9  2  0  0  0  0
  8 10  1  0  0  0  0
 10 11  1  6  0  0  0
 10 14  1  0  0  0  0
 11 12  1  0  0  0  0
 12 13  1  0  0  0  0
 14 15  2  0  0  0  0
 14 16  1  0  0  0  0
 16 21  2  0  0  0  0
 16 17  1  0  0  0  0
 17 18  2  0  0  0  0
 18 19  1  0  0  0  0
 19 20  2  0  0  0  0
 20 21  1  0  0  0  0
 21 22  1  0  0  0  0
 23 24  1  0  0  0  0
 24 25  1  6  0  0  0
 24 26  1  0  0  0  0
 26 30  2  0  0  0  0
 26 27  1  0  0  0  0
 27 28  2  0  0  0  0
 28 29  1  0  0  0  0
 29 30  1  0  0  0  0
M  END
$$$$
