
 OpenBabel03202621362D

 25 25  0  0  0  0  0  0  0  0999 V2000
    3.4641    3.0000    0.0000 C   0  0  0  0  0  0  0  0  0  0  0  0
    2.5981    3.5000    0.0000 S   0  0  0  0  0  0  0  0  0  0  0  0
    1.1590    2.6776    0.4615 C   0  0  0  0  0  0  0  0  0  0  0  0
    0.3305    3.1993    1.1925 O   0  0  0  0  0  0  0  0  0  0  0  0
    1.0282    1.4367   -0.0881 N   0  0  0  0  0  0  0  0  0  0  0  0
   -0.0343    0.5858    0.3700 C   0  0  0  0  0  0  0  0  0  0  0  0
    0.1283   -0.8075    0.0122 N   0  0  0  0  0  0  0  0  0  0  0  0
    1.3525   -1.4136    0.2695 C   0  0  0  0  0  0  0  0  0  0  0  0
    2.3346   -0.8105    0.7067 O   0  0  0  0  0  0  0  0  0  0  0  0
    1.4753   -2.8613   -0.1210 C   0  0  0  0  0  0  0  0  0  0  0  0
    0.1851   -3.5553    0.2142 C   0  0  0  0  0  0  0  0  0  0  0  0
   -0.9052   -2.8597   -0.4094 N   0  0  0  0  0  0  0  0  0  0  0  0
   -1.0189   -1.5020   -0.3373 C   0  0  0  0  0  0  0  0  0  0  0  0
   -2.1126   -0.9876   -0.5554 O   0  0  0  0  0  0  0  0  0  0  0  0
    3.5379    2.7731   -1.0818 H   0  0  0  0  0  0  0  0  0  0  0  0
    4.1483    3.8416    0.2187 H   0  0  0  0  0  0  0  0  0  0  0  0
    4.3907    2.4650    0.0000 H   0  0  0  0  0  0  0  0  0  0  0  0
    1.8646    1.0019   -0.4459 H   0  0  0  0  0  0  0  0  0  0  0  0
   -0.0879    0.6386    1.4643 H   0  0  0  0  0  0  0  0  0  0  0  0
   -0.9710    0.9976   -0.0246 H   0  0  0  0  0  0  0  0  0  0  0  0
    2.3047   -3.3170    0.4292 H   0  0  0  0  0  0  0  0  0  0  0  0
    1.6953   -2.9079   -1.1933 H   0  0  0  0  0  0  0  0  0  0  0  0
    0.0036   -3.5546    1.2947 H   0  0  0  0  0  0  0  0  0  0  0  0
    0.1834   -4.5892   -0.1429 H   0  0  0  0  0  0  0  0  0  0  0  0
   -1.7910   -3.3339   -0.5480 H   0  0  0  0  0  0  0  0  0  0  0  0
  1  2  1  0  0  0  0
  1 15  1  0  0  0  0
  1 16  1  0  0  0  0
  1 17  1  0  0  0  0
  2  3  1  0  0  0  0
  3  4  2  0  0  0  0
  3  5  1  0  0  0  0
  5  6  1  0  0  0  0
  5 18  1  0  0  0  0
  6  7  1  0  0  0  0
  6 19  1  0  0  0  0
  6 20  1  0  0  0  0
  7 13  1  0  0  0  0
  7  8  1  0  0  0  0
  8  9  2  0  0  0  0
  8 10  1  0  0  0  0
 10 11  1  0  0  0  0
 10 21  1  0  0  0  0
 10 22  1  0  0  0  0
 11 12  1  0  0  0  0
 11 23  1  0  0  0  0
 11 24  1  0  0  0  0
 12 13  1  0  0  0  0
 12 25  1  0  0  0  0
 13 14  2  0  0  0  0
M  END
$$$$
