
 OpenBabel03202621322D

 24 23  0  0  0  0  0  0  0  0999 V2000
    3.4641   -2.0000    0.0000 C   0  0  0  0  0  0  0  0  0  0  0  0
    4.3301   -1.5000    0.0000 C   0  0  0  0  0  0  0  0  0  0  0  0
    4.8418   -0.2834    0.3858 C   0  0  0  0  0  0  0  0  0  0  0  0
    3.4641    0.0000    0.0000 C   0  0  0  0  0  0  0  0  0  0  0  0
    3.4641    1.0000    0.0000 C   0  0  0  0  0  0  0  0  0  0  0  0
    2.9811   -0.0574   -1.3393 C   0  0  0  0  0  0  0  0  0  0  0  0
    1.5300    0.0469   -1.4685 C   0  0  0  0  0  0  0  0  0  0  0  0
    0.9755    0.5638   -2.4266 O   0  0  0  0  0  0  0  0  0  0  0  0
    0.8660   -0.5000    0.0000 S   0  0  0  0  0  0  0  0  0  0  0  0
    0.0000    0.0000    0.0000 C   0  0  0  0  0  0  0  0  0  0  0  0
    3.4316   -2.4347   -1.0433 H   0  0  0  0  0  0  0  0  0  0  0  0
    3.6646   -2.9017    0.6491 H   0  0  0  0  0  0  0  0  0  0  0  0
    2.5375   -2.5350    0.0000 H   0  0  0  0  0  0  0  0  0  0  0  0
    5.0306   -2.0206    0.7193 H   0  0  0  0  0  0  0  0  0  0  0  0
    5.0014   -1.7751   -0.8651 H   0  0  0  0  0  0  0  0  0  0  0  0
    5.1058   -0.1222    1.4559 H   0  0  0  0  0  0  0  0  0  0  0  0
    5.6661    0.0204   -0.2854 H   0  0  0  0  0  0  0  0  0  0  0  0
    4.4794    1.4416   -0.2418 H   0  0  0  0  0  0  0  0  0  0  0  0
    3.1181    1.1788    1.0503 H   0  0  0  0  0  0  0  0  0  0  0  0
    3.4641    2.0700    0.0000 H   0  0  0  0  0  0  0  0  0  0  0  0
    3.5158   -0.4194   -2.2098 H   0  0  0  0  0  0  0  0  0  0  0  0
    0.1356    0.5845    0.9314 H   0  0  0  0  0  0  0  0  0  0  0  0
   -0.6848   -0.8411    0.2232 H   0  0  0  0  0  0  0  0  0  0  0  0
   -0.9266    0.5350    0.0000 H   0  0  0  0  0  0  0  0  0  0  0  0
  1  2  1  0  0  0  0
  1 11  1  0  0  0  0
  1 12  1  0  0  0  0
  1 13  1  0  0  0  0
  2  3  1  0  0  0  0
  2 14  1  0  0  0  0
  2 15  1  0  0  0  0
  3  4  1  0  0  0  0
  3 16  1  0  0  0  0
  3 17  1  0  0  0  0
  4  5  1  0  0  0  0
  4  6  2  3  0  0  0
  5 18  1  0  0  0  0
  5 19  1  0  0  0  0
  5 20  1  0  0  0  0
  6  7  1  0  0  0  0
  6 21  1  0  0  0  0
  7  8  2  0  0  0  0
  7  9  1  0  0  0  0
  9 10  1  0  0  0  0
 10 22  1  0  0  0  0
 10 23  1  0  0  0  0
 10 24  1  0  0  0  0
M  END
$$$$
