
 OpenBabel03202621372D

 24 23  0  0  0  0  0  0  0  0999 V2000
    6.0622   -1.5000    0.0000 C   0  0  0  0  0  0  0  0  0  0  0  0
    6.0622   -0.5000    0.0000 N   0  0  0  0  0  0  0  0  0  0  0  0
    5.4185    0.6340   -0.5834 C   0  0  0  0  0  0  0  0  0  0  0  0
    3.9460    0.5379   -0.7959 C   0  0  0  0  0  0  0  0  0  0  0  0
    3.2336    1.4900    0.1503 C   0  0  0  0  0  0  0  0  0  0  0  0
    2.7935    0.7711    1.3208 N   0  0  0  0  0  0  0  0  0  0  0  0
    1.4521    0.5032    1.3732 C   0  0  0  0  0  0  0  0  0  0  0  0
    0.7078    1.0755    2.1538 O   0  0  0  0  0  0  0  0  0  0  0  0
    0.8660   -0.5000    0.0000 S   0  0  0  0  0  0  0  0  0  0  0  0
    0.0000    0.0000    0.0000 C   0  0  0  0  0  0  0  0  0  0  0  0
    5.2041   -1.6735    0.6827 H   0  0  0  0  0  0  0  0  0  0  0  0
    6.9761   -1.7276    0.6002 H   0  0  0  0  0  0  0  0  0  0  0  0
    6.0622   -2.5700    0.0000 H   0  0  0  0  0  0  0  0  0  0  0  0
    6.9943   -0.0959    0.1662 H   0  0  0  0  0  0  0  0  0  0  0  0
    5.6426    1.4525    0.1326 H   0  0  0  0  0  0  0  0  0  0  0  0
    5.9279    0.9510   -1.5015 H   0  0  0  0  0  0  0  0  0  0  0  0
    3.7176    0.7825   -1.8404 H   0  0  0  0  0  0  0  0  0  0  0  0
    3.6135   -0.4977   -0.6517 H   0  0  0  0  0  0  0  0  0  0  0  0
    3.8607    2.3244    0.5112 H   0  0  0  0  0  0  0  0  0  0  0  0
    2.3833    1.9679   -0.3648 H   0  0  0  0  0  0  0  0  0  0  0  0
    3.3185   -0.0949    1.4384 H   0  0  0  0  0  0  0  0  0  0  0  0
    0.0556    0.4445   -1.0139 H   0  0  0  0  0  0  0  0  0  0  0  0
   -0.6957   -0.8604   -0.0475 H   0  0  0  0  0  0  0  0  0  0  0  0
   -0.9266    0.5350    0.0000 H   0  0  0  0  0  0  0  0  0  0  0  0
  1  2  1  0  0  0  0
  1 11  1  0  0  0  0
  1 12  1  0  0  0  0
  1 13  1  0  0  0  0
  2  3  1  0  0  0  0
  2 14  1  0  0  0  0
  3  4  1  0  0  0  0
  3 15  1  0  0  0  0
  3 16  1  0  0  0  0
  4  5  1  0  0  0  0
  4 17  1  0  0  0  0
  4 18  1  0  0  0  0
  5  6  1  0  0  0  0
  5 19  1  0  0  0  0
  5 20  1  0  0  0  0
  6  7  1  0  0  0  0
  6 21  1  0  0  0  0
  7  8  2  0  0  0  0
  7  9  1  0  0  0  0
  9 10  1  0  0  0  0
 10 22  1  0  0  0  0
 10 23  1  0  0  0  0
 10 24  1  0  0  0  0
M  END
$$$$
