
 OpenBabel03202621312D

 17 17  0  0  0  0  0  0  0  0999 V2000
    2.2953   -1.9260    0.0000 C   0  0  0  0  0  0  0  0  0  0  0  0
    2.5032   -0.9479    0.0000 S   0  0  0  0  0  0  0  0  0  0  0  0
    1.8389    0.3995    0.8232 C   0  0  0  0  0  0  0  0  0  0  0  0
    2.4819    1.2289    1.4469 O   0  0  0  0  0  0  0  0  0  0  0  0
    0.4421    0.3432    0.6142 C   0  0  0  0  0  0  0  0  0  0  0  0
   -0.2807   -0.6826    1.1581 C   0  0  0  0  0  0  0  0  0  0  0  0
   -0.5000   -1.5388    0.0000 C   0  0  0  0  0  0  0  0  0  0  0  0
   -1.0878   -2.3479    0.0000 C   0  0  0  0  0  0  0  0  0  0  0  0
   -0.4382   -0.7671   -1.1063 N   0  0  0  0  0  0  0  0  0  0  0  0
    0.0508    0.4631   -0.6940 O   0  0  0  0  0  0  0  0  0  0  0  0
    2.2862   -2.1005   -1.0934 H   0  0  0  0  0  0  0  0  0  0  0  0
    3.2566   -2.3067    0.3945 H   0  0  0  0  0  0  0  0  0  0  0  0
    2.0728   -2.9726    0.0000 H   0  0  0  0  0  0  0  0  0  0  0  0
   -0.2721   -1.0209    2.1872 H   0  0  0  0  0  0  0  0  0  0  0  0
   -1.9922   -1.9780    0.5463 H   0  0  0  0  0  0  0  0  0  0  0  0
   -0.4724   -3.0298    0.6326 H   0  0  0  0  0  0  0  0  0  0  0  0
   -1.7167   -3.2136    0.0000 H   0  0  0  0  0  0  0  0  0  0  0  0
  1  2  1  0  0  0  0
  1 11  1  0  0  0  0
  1 12  1  0  0  0  0
  1 13  1  0  0  0  0
  2  3  1  0  0  0  0
  3  4  2  0  0  0  0
  3  5  1  0  0  0  0
  5 10  1  0  0  0  0
  5  6  2  0  0  0  0
  6  7  1  0  0  0  0
  6 14  1  0  0  0  0
  7  8  1  0  0  0  0
  7  9  2  0  0  0  0
  8 15  1  0  0  0  0
  8 16  1  0  0  0  0
  8 17  1  0  0  0  0
  9 10  1  0  0  0  0
M  END
$$$$
