
 OpenBabel03202621382D

 22 21  0  0  1  0  0  0  0  0999 V2000
    5.1962   -1.0000    0.0000 C   0  0  0  0  0  0  0  0  0  0  0  0
    5.1962    0.0000    0.0000 C   0  0  0  0  0  0  0  0  0  0  0  0
    3.9363    0.7883    0.4766 C   0  0  1  0  0  0  0  0  0  0  0  0
    4.0038    2.1141   -0.0624 O   0  0  0  0  0  0  0  0  0  0  0  0
    2.6027    0.1444    0.0796 C   0  0  0  0  0  0  0  0  0  0  0  0
    1.4453    1.1352    0.0890 C   0  0  0  0  0  0  0  0  0  0  0  0
    0.1697    0.4571    0.0829 N   0  0  0  0  0  0  0  0  0  0  0  0
   -1.0132    1.1218    0.1926 C   0  0  0  0  0  0  0  0  0  0  0  0
   -2.0984    0.5803    0.0316 O   0  0  0  0  0  0  0  0  0  0  0  0
    5.1846   -1.1828    1.1023 H   0  0  0  0  0  0  0  0  0  0  0  0
    6.2360   -1.1904   -0.3684 H   0  0  0  0  0  0  0  0  0  0  0  0
    5.1962   -2.0700    0.0000 H   0  0  0  0  0  0  0  0  0  0  0  0
    6.0258    0.5244    0.5190 H   0  0  0  0  0  0  0  0  0  0  0  0
    5.3343    0.4058   -1.0214 H   0  0  0  0  0  0  0  0  0  0  0  0
    3.9619    0.8964    1.5679 H   0  0  0  0  0  0  0  0  0  0  0  0
    4.8806    2.4797    0.1511 H   0  0  0  0  0  0  0  0  0  0  0  0
    2.6710   -0.2889   -0.9256 H   0  0  0  0  0  0  0  0  0  0  0  0
    2.4004   -0.6898    0.7638 H   0  0  0  0  0  0  0  0  0  0  0  0
    1.4737    1.7861    0.9704 H   0  0  0  0  0  0  0  0  0  0  0  0
    1.4802    1.7769   -0.7991 H   0  0  0  0  0  0  0  0  0  0  0  0
    0.0923   -0.4971   -0.2538 H   0  0  0  0  0  0  0  0  0  0  0  0
   -0.9058    2.1905    0.4502 H   0  0  0  0  0  0  0  0  0  0  0  0
  1  2  1  0  0  0  0
  1 10  1  0  0  0  0
  1 11  1  0  0  0  0
  1 12  1  0  0  0  0
  2  3  1  0  0  0  0
  2 13  1  0  0  0  0
  2 14  1  0  0  0  0
  3  4  1  0  0  0  0
  3  5  1  0  0  0  0
  3 15  1  1  0  0  0
  4 16  1  0  0  0  0
  5  6  1  0  0  0  0
  5 17  1  0  0  0  0
  5 18  1  0  0  0  0
  6  7  1  0  0  0  0
  6 19  1  0  0  0  0
  6 20  1  0  0  0  0
  7  8  1  0  0  0  0
  7 21  1  0  0  0  0
  8  9  2  0  0  0  0
  8 22  1  0  0  0  0
M  END
$$$$
