
 OpenBabel03202621352D

 23 23  0  0  1  0  0  0  0  0999 V2000
    3.3966    0.9091   -0.3975 N   0  0  0  0  0  0  0  0  0  0  0  0
    1.9834    1.0957   -0.0844 C   0  0  0  0  0  0  0  0  0  0  0  0
    1.1031   -0.1039   -0.4574 C   0  0  1  0  0  0  0  0  0  0  0  0
    1.6071   -1.4776   -0.0034 C   0  0  0  0  0  0  0  0  0  0  0  0
    0.3615   -2.3545    0.1270 C   0  0  0  0  0  0  0  0  0  0  0  0
   -0.8454   -1.4256    0.0673 C   0  0  0  0  0  0  0  0  0  0  0  0
   -0.2842   -0.0089    0.2012 C   0  0  1  0  0  0  0  0  0  0  0  0
   -1.0567    0.9883   -0.4757 O   0  0  0  0  0  0  0  0  0  0  0  0
   -2.3611    1.1003   -0.1693 C   0  0  0  0  0  0  0  0  0  0  0  0
   -3.0748    2.0211   -0.5444 O   0  0  0  0  0  0  0  0  0  0  0  0
    3.7930    0.1869    0.2037 H   0  0  0  0  0  0  0  0  0  0  0  0
    3.9023    1.7643   -0.1613 H   0  0  0  0  0  0  0  0  0  0  0  0
    1.8901    1.3361    0.9796 H   0  0  0  0  0  0  0  0  0  0  0  0
    1.6269    1.9727   -0.6389 H   0  0  0  0  0  0  0  0  0  0  0  0
    0.9869   -0.1181   -1.5474 H   0  0  0  0  0  0  0  0  0  0  0  0
    2.1257   -1.4231    0.9594 H   0  0  0  0  0  0  0  0  0  0  0  0
    2.3052   -1.9051   -0.7324 H   0  0  0  0  0  0  0  0  0  0  0  0
    0.3860   -2.9134    1.0689 H   0  0  0  0  0  0  0  0  0  0  0  0
    0.3040   -3.0888   -0.6835 H   0  0  0  0  0  0  0  0  0  0  0  0
   -1.5457   -1.6477    0.8818 H   0  0  0  0  0  0  0  0  0  0  0  0
   -1.3888   -1.5488   -0.8709 H   0  0  0  0  0  0  0  0  0  0  0  0
   -0.1912    0.2709    1.2597 H   0  0  0  0  0  0  0  0  0  0  0  0
   -2.7450    0.2644    0.4336 H   0  0  0  0  0  0  0  0  0  0  0  0
  1  2  1  0  0  0  0
  1 11  1  0  0  0  0
  1 12  1  0  0  0  0
  2 13  1  0  0  0  0
  2 14  1  0  0  0  0
  3  2  1  0  0  0  0
  3  4  1  0  0  0  0
  3  7  1  0  0  0  0
  3 15  1  6  0  0  0
  4  5  1  0  0  0  0
  4 16  1  0  0  0  0
  4 17  1  0  0  0  0
  5  6  1  0  0  0  0
  5 18  1  0  0  0  0
  5 19  1  0  0  0  0
  6  7  1  0  0  0  0
  6 20  1  0  0  0  0
  6 21  1  0  0  0  0
  7  8  1  0  0  0  0
  7 22  1  6  0  0  0
  8  9  1  0  0  0  0
  9 10  2  0  0  0  0
  9 23  1  0  0  0  0
M  END
$$$$
