
 OpenBabel03202621322D

 23 24  0  0  0  0  0  0  0  0999 V2000
   -1.2601   -1.2601    0.0000 C   0  0  0  0  0  0  0  0  0  0  0  0
   -0.9511   -0.3090    0.0000 N   0  0  0  0  0  0  0  0  0  0  0  0
   -1.7984    0.8458   -0.1240 C   0  0  0  0  0  0  0  0  0  0  0  0
   -3.0162    0.8825   -0.2269 O   0  0  0  0  0  0  0  0  0  0  0  0
   -0.9115    2.0929   -0.1042 C   0  0  0  0  0  0  0  0  0  0  0  0
    0.4636    1.5233   -0.0621 C   0  0  0  0  0  0  0  0  0  0  0  0
    1.6823    2.1871   -0.0473 C   0  0  0  0  0  0  0  0  0  0  0  0
    2.8764    1.4431   -0.0391 C   0  0  0  0  0  0  0  0  0  0  0  0
    4.3841    2.3983   -0.0367 S   0  0  0  0  0  0  0  0  0  0  0  0
    5.7126    1.2704    0.1119 C   0  0  0  0  0  0  0  0  0  0  0  0
    6.8681    1.6182   -0.1056 O   0  0  0  0  0  0  0  0  0  0  0  0
    2.7958    0.0378   -0.0618 C   0  0  0  0  0  0  0  0  0  0  0  0
    1.5564   -0.6235   -0.0555 C   0  0  0  0  0  0  0  0  0  0  0  0
    0.3969    0.1364   -0.0453 C   0  0  0  0  0  0  0  0  0  0  0  0
   -2.3255   -1.1610    0.3086 H   0  0  0  0  0  0  0  0  0  0  0  0
   -0.7575   -1.6025    0.9377 H   0  0  0  0  0  0  0  0  0  0  0  0
   -1.5907   -2.2777    0.0000 H   0  0  0  0  0  0  0  0  0  0  0  0
   -1.1297    2.6821    0.7896 H   0  0  0  0  0  0  0  0  0  0  0  0
   -1.0737    2.6687   -1.0191 H   0  0  0  0  0  0  0  0  0  0  0  0
    1.7012    3.2748   -0.0457 H   0  0  0  0  0  0  0  0  0  0  0  0
    5.5014    0.2392    0.4233 H   0  0  0  0  0  0  0  0  0  0  0  0
    3.6792   -0.5894   -0.0902 H   0  0  0  0  0  0  0  0  0  0  0  0
    1.5227   -1.7071   -0.0589 H   0  0  0  0  0  0  0  0  0  0  0  0
  1  2  1  0  0  0  0
  1 15  1  0  0  0  0
  1 16  1  0  0  0  0
  1 17  1  0  0  0  0
  2 14  1  0  0  0  0
  2  3  1  0  0  0  0
  3  4  2  0  0  0  0
  3  5  1  0  0  0  0
  5  6  1  0  0  0  0
  5 18  1  0  0  0  0
  5 19  1  0  0  0  0
  6 14  2  0  0  0  0
  6  7  1  0  0  0  0
  7  8  2  0  0  0  0
  7 20  1  0  0  0  0
  8  9  1  0  0  0  0
  8 12  1  0  0  0  0
  9 10  1  0  0  0  0
 10 11  2  0  0  0  0
 10 21  1  0  0  0  0
 12 13  2  0  0  0  0
 12 22  1  0  0  0  0
 13 14  1  0  0  0  0
 13 23  1  0  0  0  0
M  END
$$$$
