
 OpenBabel03202621382D

 60 61  0  0  1  0  0  0  0  0999 V2000
    5.1962    5.0000    0.0000 C   0  0  0  0  0  0  0  0  0  0  0  0
    4.3301    4.5000    0.0000 C   0  0  0  0  0  0  0  0  0  0  0  0
    3.7598    4.5745    1.1162 O   0  0  0  0  0  0  0  0  0  0  0  0
    3.5322    3.7877   -1.0553 C   0  0  0  0  0  0  0  0  0  0  0  0
    2.3374    3.0641   -0.4082 C   0  0  0  0  0  0  0  0  0  0  0  0
    1.1937    3.3807   -0.7247 O   0  0  0  0  0  0  0  0  0  0  0  0
    2.6886    1.9905    0.6322 C   0  0  2  0  0  0  0  0  0  0  0  0
    3.8258    1.3188    0.1071 O   0  0  0  0  0  0  0  0  0  0  0  0
    1.5452    1.1435    1.2358 C   0  0  0  0  0  0  0  0  0  0  0  0
    0.8981    1.5937    2.1892 O   0  0  0  0  0  0  0  0  0  0  0  0
    1.2623   -0.2685    0.7031 C   0  0  2  0  0  0  0  0  0  0  0  0
    2.5551   -1.0669    0.6531 C   0  0  0  0  0  0  0  0  0  0  0  0
    2.5019   -2.5641    0.4276 C   0  0  0  0  0  0  0  0  0  0  0  0
    3.8627   -3.0812    0.2446 O   0  0  0  0  0  0  0  0  0  0  0  0
    4.7440   -2.3808   -0.5228 C   0  0  0  0  0  0  0  0  0  0  0  0
    4.8644   -2.7355   -2.1357 S   0  0  0  0  0  0  0  0  0  0  0  0
    5.5000   -1.5197    0.2434 N   0  0  0  0  0  0  0  0  0  0  0  0
    6.9282   -1.0000    0.0000 C   0  0  1  0  0  0  0  0  0  0  0  0
    7.5905   -1.7492    0.0000 C   0  0  0  0  0  0  0  0  0  0  0  0
    7.3138   -0.1757    1.3238 C   0  0  0  0  0  0  0  0  0  0  0  0
    8.5194    0.6822    0.9602 C   0  0  0  0  0  0  0  0  0  0  0  0
    7.9995    1.4314   -0.5541 S   0  0  0  0  0  0  0  0  0  0  0  0
    9.1157    1.4630   -1.4767 O   0  0  0  0  0  0  0  0  0  0  0  0
    7.2688    2.6333   -0.2047 O   0  0  0  0  0  0  0  0  0  0  0  0
    6.8484    0.1480   -1.0404 C   0  0  0  0  0  0  0  0  0  0  0  0
    0.6172   -0.1543   -0.6659 C   0  0  0  0  0  0  0  0  0  0  0  0
    1.2985   -0.1409   -1.6952 O   0  0  0  0  0  0  0  0  0  0  0  0
   -0.8082    0.2763   -0.6718 C   0  0  0  0  0  0  0  0  0  0  0  0
   -1.0300    1.5092   -1.3238 C   0  0  0  0  0  0  0  0  0  0  0  0
   -2.1888    2.2278   -1.0746 C   0  0  0  0  0  0  0  0  0  0  0  0
   -3.1390    1.6823   -0.2274 C   0  0  0  0  0  0  0  0  0  0  0  0
   -2.9484    0.3988    0.3206 C   0  0  0  0  0  0  0  0  0  0  0  0
   -1.7810   -0.3605    0.1185 C   0  0  0  0  0  0  0  0  0  0  0  0
   -1.6490   -1.5357    0.6383 O   0  5  0  0  0  0  0  0  0  0  0  0
    5.7396    4.3307   -0.6952 H   0  0  0  0  0  0  0  0  0  0  0  0
    4.8251    5.8792   -0.5802 H   0  0  0  0  0  0  0  0  0  0  0  0
    6.1229    5.5350    0.0000 H   0  0  0  0  0  0  0  0  0  0  0  0
    4.1446    3.0571   -1.5929 H   0  0  0  0  0  0  0  0  0  0  0  0
    3.1515    4.5154   -1.7794 H   0  0  0  0  0  0  0  0  0  0  0  0
    3.0660    2.5011    1.5229 H   0  0  0  0  0  0  0  0  0  0  0  0
    3.5474    0.9686   -0.7643 H   0  0  0  0  0  0  0  0  0  0  0  0
    0.6136   -0.7628    1.4285 H   0  0  0  0  0  0  0  0  0  0  0  0
    3.1159   -0.7098   -0.2001 H   0  0  0  0  0  0  0  0  0  0  0  0
    3.1560   -0.8630    1.5492 H   0  0  0  0  0  0  0  0  0  0  0  0
    1.9021   -2.8500   -0.4409 H   0  0  0  0  0  0  0  0  0  0  0  0
    2.0964   -3.0660    1.3119 H   0  0  0  0  0  0  0  0  0  0  0  0
    5.2350   -1.6001    1.2207 H   0  0  0  0  0  0  0  0  0  0  0  0
    7.2126   -2.4769    0.7666 H   0  0  0  0  0  0  0  0  0  0  0  0
    7.4746   -2.1383   -1.0344 H   0  0  0  0  0  0  0  0  0  0  0  0
    8.2992   -2.5509    0.0000 H   0  0  0  0  0  0  0  0  0  0  0  0
    6.4765    0.4532    1.6499 H   0  0  0  0  0  0  0  0  0  0  0  0
    7.5650   -0.8244    2.1780 H   0  0  0  0  0  0  0  0  0  0  0  0
    9.4063    0.0767    0.7396 H   0  0  0  0  0  0  0  0  0  0  0  0
    8.7646    1.4356    1.7062 H   0  0  0  0  0  0  0  0  0  0  0  0
    5.8609    0.6273   -1.0219 H   0  0  0  0  0  0  0  0  0  0  0  0
    7.0577   -0.1506   -2.0693 H   0  0  0  0  0  0  0  0  0  0  0  0
   -0.2581    1.9395   -1.9472 H   0  0  0  0  0  0  0  0  0  0  0  0
   -2.3098    3.2188   -1.4935 H   0  0  0  0  0  0  0  0  0  0  0  0
   -4.0328    2.2450    0.0218 H   0  0  0  0  0  0  0  0  0  0  0  0
   -3.7273   -0.0009    0.9651 H   0  0  0  0  0  0  0  0  0  0  0  0
  1  2  1  0  0  0  0
  1 35  1  0  0  0  0
  1 36  1  0  0  0  0
  1 37  1  0  0  0  0
  2  3  2  0  0  0  0
  2  4  1  0  0  0  0
  4  5  1  0  0  0  0
  4 38  1  0  0  0  0
  4 39  1  0  0  0  0
  5  6  2  0  0  0  0
  5  7  1  0  0  0  0
  7  8  1  0  0  0  0
  7  9  1  0  0  0  0
  7 40  1  1  0  0  0
  8 41  1  0  0  0  0
  9 10  2  0  0  0  0
  9 11  1  0  0  0  0
 11 12  1  0  0  0  0
 11 26  1  0  0  0  0
 11 42  1  1  0  0  0
 12 13  1  0  0  0  0
 12 43  1  0  0  0  0
 12 44  1  0  0  0  0
 13 14  1  0  0  0  0
 13 45  1  0  0  0  0
 13 46  1  0  0  0  0
 14 15  1  0  0  0  0
 15 16  2  0  0  0  0
 15 17  1  0  0  0  0
 17 47  1  0  0  0  0
 18 17  1  6  0  0  0
 18 25  1  0  0  0  0
 18 19  1  0  0  0  0
 18 20  1  0  0  0  0
 19 48  1  0  0  0  0
 19 49  1  0  0  0  0
 19 50  1  0  0  0  0
 20 21  1  0  0  0  0
 20 51  1  0  0  0  0
 20 52  1  0  0  0  0
 21 22  1  0  0  0  0
 21 53  1  0  0  0  0
 21 54  1  0  0  0  0
 22 23  2  0  0  0  0
 22 24  2  0  0  0  0
 22 25  1  0  0  0  0
 25 55  1  0  0  0  0
 25 56  1  0  0  0  0
 26 27  2  0  0  0  0
 26 28  1  0  0  0  0
 28 33  2  0  0  0  0
 28 29  1  0  0  0  0
 29 30  2  0  0  0  0
 29 57  1  0  0  0  0
 30 31  1  0  0  0  0
 30 58  1  0  0  0  0
 31 32  2  0  0  0  0
 31 59  1  0  0  0  0
 32 33  1  0  0  0  0
 32 60  1  0  0  0  0
 33 34  1  0  0  0  0
M  CHG  1  34  -1
M  END
$$$$
