
 OpenBabel03202621392D

 26 27  0  0  0  0  0  0  0  0999 V2000
    0.6302   -4.9362   -0.2007 C   0  0  0  0  0  0  0  0  0  0  0  0
    1.9677   -4.2365    0.7915 S   0  0  0  0  0  0  0  0  0  0  0  0
    1.9944   -2.5549    0.2367 C   0  0  0  0  0  0  0  0  0  0  0  0
    3.4208   -1.9217   -0.3518 S   0  0  0  0  0  0  0  0  0  0  0  0
    0.7548   -1.9997    0.3965 N   0  0  0  0  0  0  0  0  0  0  0  0
    0.2661   -0.7345    0.2058 C   0  0  0  0  0  0  0  0  0  0  0  0
   -1.0254   -0.5175    0.2739 N   0  0  0  0  0  0  0  0  0  0  0  0
   -1.3052    0.8310    0.0847 C   0  0  0  0  0  0  0  0  0  0  0  0
   -2.6860    1.3165    0.0657 C   0  0  0  0  0  0  0  0  0  0  0  0
   -3.7416    0.3834    0.0658 C   0  0  0  0  0  0  0  0  0  0  0  0
   -5.0739    0.8061    0.0416 C   0  0  0  0  0  0  0  0  0  0  0  0
   -5.3587    2.1629    0.0199 C   0  0  0  0  0  0  0  0  0  0  0  0
   -6.6350    2.5719   -0.0027 F   0  0  0  0  0  0  0  0  0  0  0  0
   -4.3397    3.1062    0.0215 C   0  0  0  0  0  0  0  0  0  0  0  0
   -3.0051    2.6830    0.0444 C   0  0  0  0  0  0  0  0  0  0  0  0
   -0.1822    1.6188   -0.0805 C   0  0  0  0  0  0  0  0  0  0  0  0
    1.2268    0.6421   -0.0486 S   0  0  0  0  0  0  0  0  0  0  0  0
    0.4471   -4.3627   -1.1133 H   0  0  0  0  0  0  0  0  0  0  0  0
    0.8828   -5.9626   -0.4796 H   0  0  0  0  0  0  0  0  0  0  0  0
   -0.2853   -4.9596    0.3976 H   0  0  0  0  0  0  0  0  0  0  0  0
    0.0256   -2.6237    0.7098 H   0  0  0  0  0  0  0  0  0  0  0  0
   -3.5299   -0.6823    0.0815 H   0  0  0  0  0  0  0  0  0  0  0  0
   -5.8834    0.0842    0.0399 H   0  0  0  0  0  0  0  0  0  0  0  0
   -4.5830    4.1630    0.0073 H   0  0  0  0  0  0  0  0  0  0  0  0
   -2.2319    3.4462    0.0522 H   0  0  0  0  0  0  0  0  0  0  0  0
   -0.0980    2.6842   -0.2305 H   0  0  0  0  0  0  0  0  0  0  0  0
  1  2  1  0  0  0  0
  1 18  1  0  0  0  0
  1 19  1  0  0  0  0
  1 20  1  0  0  0  0
  2  3  1  0  0  0  0
  3  4  2  0  0  0  0
  3  5  1  0  0  0  0
  5  6  1  0  0  0  0
  5 21  1  0  0  0  0
  6 17  1  0  0  0  0
  6  7  2  0  0  0  0
  7  8  1  0  0  0  0
  8  9  1  0  0  0  0
  8 16  2  0  0  0  0
  9 15  2  0  0  0  0
  9 10  1  0  0  0  0
 10 11  2  0  0  0  0
 10 22  1  0  0  0  0
 11 12  1  0  0  0  0
 11 23  1  0  0  0  0
 12 13  1  0  0  0  0
 12 14  2  0  0  0  0
 14 15  1  0  0  0  0
 14 24  1  0  0  0  0
 15 25  1  0  0  0  0
 16 17  1  0  0  0  0
 16 26  1  0  0  0  0
M  END
$$$$
