
 OpenBabel03202621312D

 19 18  0  0  0  0  0  0  0  0999 V2000
    3.4641   -2.0000    0.0000 C   0  0  0  0  0  0  0  0  0  0  0  0
    4.3301   -1.5000    0.0000 C   0  0  0  0  0  0  0  0  0  0  0  0
    5.0190   -0.3171   -0.0000 C   0  0  0  0  0  0  0  0  0  0  0  0
    4.4994    1.0836    0.0000 C   0  0  0  0  0  0  0  0  0  0  0  0
    5.1822    2.0850   -0.0000 O   0  0  0  0  0  0  0  0  0  0  0  0
    3.1512    0.9338   -0.0000 N   0  0  0  0  0  0  0  0  0  0  0  0
    1.9037    1.3668   -0.0000 C   0  0  0  0  0  0  0  0  0  0  0  0
    1.3981    2.9581   -0.0000 S   0  0  0  0  0  0  0  0  0  0  0  0
    0.8660   -0.5000    0.0000 S   0  0  0  0  0  0  0  0  0  0  0  0
    0.0000    0.0000    0.0000 C   0  0  0  0  0  0  0  0  0  0  0  0
    2.6697   -1.4012   -0.0000 H   0  0  0  0  0  0  0  0  0  0  0  0
    3.7067   -3.0781   -0.0000 H   0  0  0  0  0  0  0  0  0  0  0  0
    2.5375   -2.5350    0.0000 H   0  0  0  0  0  0  0  0  0  0  0  0
    5.2052   -2.1874    0.0000 H   0  0  0  0  0  0  0  0  0  0  0  0
    6.1101   -0.3195   -0.0000 H   0  0  0  0  0  0  0  0  0  0  0  0
    2.9148    0.0060    0.0000 H   0  0  0  0  0  0  0  0  0  0  0  0
   -0.0011    1.0636    0.0000 H   0  0  0  0  0  0  0  0  0  0  0  0
   -0.7780   -0.7730    0.0000 H   0  0  0  0  0  0  0  0  0  0  0  0
   -0.9266    0.5350    0.0000 H   0  0  0  0  0  0  0  0  0  0  0  0
  1  2  1  0  0  0  0
  1 11  1  0  0  0  0
  1 12  1  0  0  0  0
  1 13  1  0  0  0  0
  2  3  2  3  0  0  0
  2 14  1  0  0  0  0
  3  4  1  0  0  0  0
  3 15  1  0  0  0  0
  4  5  2  0  0  0  0
  4  6  1  0  0  0  0
  6  7  1  0  0  0  0
  6 16  1  0  0  0  0
  7  8  2  0  0  0  0
  7  9  1  0  0  0  0
  9 10  1  0  0  0  0
 10 17  1  0  0  0  0
 10 18  1  0  0  0  0
 10 19  1  0  0  0  0
M  END
$$$$
