
 OpenBabel03202621372D

 19 19  0  0  1  0  0  0  0  0999 V2000
   -2.1745   -2.5740    0.0254 C   0  0  0  0  0  0  0  0  0  0  0  0
   -0.8686   -1.8307   -0.2556 C   0  0  2  0  0  0  0  0  0  0  0  0
    0.1185   -2.4178    0.6226 O   0  0  0  0  0  0  0  0  0  0  0  0
    1.4091   -2.3208    0.2405 C   0  0  0  0  0  0  0  0  0  0  0  0
    2.3207   -2.9349    0.7738 O   0  0  0  0  0  0  0  0  0  0  0  0
   -0.9895   -0.3191   -0.0743 C   0  0  0  0  0  0  0  0  0  0  0  0
   -2.2154    0.2298    0.0370 N   0  0  0  0  0  0  0  0  0  0  0  0
   -2.2791    1.5733    0.1076 C   0  0  0  0  0  0  0  0  0  0  0  0
   -1.1755    2.3889    0.0580 C   0  0  0  0  0  0  0  0  0  0  0  0
    0.0290    1.7426   -0.0679 C   0  0  0  0  0  0  0  0  0  0  0  0
    0.1506    0.4024   -0.1479 N   0  0  0  0  0  0  0  0  0  0  0  0
   -2.9912   -2.2240   -0.6138 H   0  0  0  0  0  0  0  0  0  0  0  0
   -2.0428   -3.6484   -0.1445 H   0  0  0  0  0  0  0  0  0  0  0  0
   -2.4766   -2.4572    1.0730 H   0  0  0  0  0  0  0  0  0  0  0  0
   -0.5853   -2.0239   -1.2994 H   0  0  0  0  0  0  0  0  0  0  0  0
    1.5664   -1.6454   -0.6146 H   0  0  0  0  0  0  0  0  0  0  0  0
   -3.2792    1.9865    0.2034 H   0  0  0  0  0  0  0  0  0  0  0  0
   -1.2507    3.4655    0.1119 H   0  0  0  0  0  0  0  0  0  0  0  0
    0.9616    2.2976   -0.1153 H   0  0  0  0  0  0  0  0  0  0  0  0
  1 12  1  0  0  0  0
  1 13  1  0  0  0  0
  1 14  1  0  0  0  0
  2  1  1  0  0  0  0
  2  3  1  0  0  0  0
  2  6  1  0  0  0  0
  2 15  1  6  0  0  0
  3  4  1  0  0  0  0
  4  5  2  0  0  0  0
  4 16  1  0  0  0  0
  6 11  2  0  0  0  0
  6  7  1  0  0  0  0
  7  8  2  0  0  0  0
  8  9  1  0  0  0  0
  8 17  1  0  0  0  0
  9 10  2  0  0  0  0
  9 18  1  0  0  0  0
 10 11  1  0  0  0  0
 10 19  1  0  0  0  0
M  END
$$$$
