
 OpenBabel03202621352D

 11 10  0  0  0  0  0  0  0  0999 V2000
   -3.0000    0.0000    0.0000 C   0  0  0  0  0  0  0  0  0  0  0  0
   -2.5000   -0.8660    0.0000 S   0  0  0  0  0  0  0  0  0  0  0  0
   -0.6888   -0.8660    0.0000 C   0  0  0  0  0  0  0  0  0  0  0  0
   -0.2589   -2.0306    0.0000 O   0  0  0  0  0  0  0  0  0  0  0  0
    0.2934    0.3274   -0.0000 C   0  0  0  0  0  0  0  0  0  0  0  0
    0.9214    1.5775    0.0000 F   0  0  0  0  0  0  0  0  0  0  0  0
   -0.6817    1.3039    0.0000 F   0  0  0  0  0  0  0  0  0  0  0  0
    1.9034   -0.2967    0.0000 Cl  0  0  0  0  0  0  0  0  0  0  0  0
   -2.3720    0.8592   -0.0000 H   0  0  0  0  0  0  0  0  0  0  0  0
   -4.0618   -0.2661   -0.0000 H   0  0  0  0  0  0  0  0  0  0  0  0
   -3.5350    0.9266    0.0000 H   0  0  0  0  0  0  0  0  0  0  0  0
  1  2  1  0  0  0  0
  1  9  1  0  0  0  0
  1 10  1  0  0  0  0
  1 11  1  0  0  0  0
  2  3  1  0  0  0  0
  3  4  2  0  0  0  0
  3  5  1  0  0  0  0
  5  6  1  0  0  0  0
  5  7  1  0  0  0  0
  5  8  1  0  0  0  0
M  END
$$$$
