
 OpenBabel03202621392D

 60 62  0  0  1  0  0  0  0  0999 V2000
   -1.7321   -7.0000    0.0000 C   0  0  0  0  0  0  0  0  0  0  0  0
   -1.7321   -6.0000    0.0000 C   0  0  0  0  0  0  0  0  0  0  0  0
   -1.8925   -5.3152   -1.0316 O   0  0  0  0  0  0  0  0  0  0  0  0
   -1.8281   -5.2613    1.3259 C   0  0  0  0  0  0  0  0  0  0  0  0
   -0.5614   -4.4852    1.4528 C   0  0  0  0  0  0  0  0  0  0  0  0
    0.0409   -4.3759    2.5236 O   0  0  0  0  0  0  0  0  0  0  0  0
    0.0000   -4.0000    0.0000 C   0  0  2  0  0  0  0  0  0  0  0  0
    1.5163   -4.0115    0.4865 O   0  0  0  0  0  0  0  0  0  0  0  0
    0.0000   -3.0000    0.0000 C   0  0  0  0  0  0  0  0  0  0  0  0
   -0.8791   -2.4169    0.6856 O   0  0  0  0  0  0  0  0  0  0  0  0
    0.7222   -2.0374   -0.9271 C   0  0  2  0  0  0  0  0  0  0  0  0
    0.7359   -2.4982   -2.3879 C   0  0  0  0  0  0  0  0  0  0  0  0
    2.0004   -3.2696   -2.8917 C   0  0  0  0  0  0  0  0  0  0  0  0
    2.9303   -3.8639   -1.9626 N   0  0  0  0  0  0  0  0  0  0  0  0
    2.9276   -5.2162   -1.8583 N   0  0  0  0  0  0  0  0  0  0  0  0
    3.9239   -5.5188   -1.0495 N   0  0  0  0  0  0  0  0  0  0  0  0
    4.6016   -4.3958   -0.6790 N   0  0  0  0  0  0  0  0  0  0  0  0
    3.9996   -3.3541   -1.2500 C   0  0  0  0  0  0  0  0  0  0  0  0
    4.3341   -1.9800   -1.0797 C   0  0  0  0  0  0  0  0  0  0  0  0
    5.4356   -1.6898   -0.3675 C   0  0  0  0  0  0  0  0  0  0  0  0
    5.7445   -0.3280    0.0000 C   0  0  0  0  0  0  0  0  0  0  0  0
    6.6956   -0.0189    0.0000 C   0  0  0  0  0  0  0  0  0  0  0  0
    4.7011    0.5215    0.1198 C   0  0  0  0  0  0  0  0  0  0  0  0
    3.5944    0.3204   -0.6659 N   0  0  0  0  0  0  0  0  0  0  0  0
    2.7611    1.4941   -0.8997 C   0  0  0  0  0  0  0  0  0  0  0  0
    3.5608   -0.7690   -1.5368 C   0  0  0  0  0  0  0  0  0  0  0  0
    2.9797   -0.7632   -2.6106 O   0  0  0  0  0  0  0  0  0  0  0  0
    0.2796   -0.5892   -0.5689 C   0  0  0  0  0  0  0  0  0  0  0  0
    0.8699   -0.0948    0.4043 O   0  0  0  0  0  0  0  0  0  0  0  0
   -1.0051    0.0695   -1.0744 C   0  0  0  0  0  0  0  0  0  0  0  0
   -2.0982   -0.7786   -1.3580 C   0  0  0  0  0  0  0  0  0  0  0  0
   -3.4007   -0.2839   -1.4038 C   0  0  0  0  0  0  0  0  0  0  0  0
   -3.6214    1.0637   -1.1913 C   0  0  0  0  0  0  0  0  0  0  0  0
   -2.5306    1.9208   -1.0312 C   0  0  0  0  0  0  0  0  0  0  0  0
   -1.1837    1.4895   -1.0062 C   0  0  0  0  0  0  0  0  0  0  0  0
   -0.2625    2.3686   -0.9213 O   0  5  0  0  0  0  0  0  0  0  0  0
   -2.7819   -7.1445   -0.3519 H   0  0  0  0  0  0  0  0  0  0  0  0
   -0.9673   -7.1597   -0.7975 H   0  0  0  0  0  0  0  0  0  0  0  0
   -1.7321   -8.0700    0.0000 H   0  0  0  0  0  0  0  0  0  0  0  0
   -2.6963   -4.5969    1.3301 H   0  0  0  0  0  0  0  0  0  0  0  0
   -1.9116   -5.9619    2.1652 H   0  0  0  0  0  0  0  0  0  0  0  0
    0.0000   -5.0700    0.0000 H   0  0  0  0  0  0  0  0  0  0  0  0
    1.5134   -3.8146    1.4570 H   0  0  0  0  0  0  0  0  0  0  0  0
    1.7464   -2.0279   -0.5682 H   0  0  0  0  0  0  0  0  0  0  0  0
    0.5870   -1.6473   -3.0594 H   0  0  0  0  0  0  0  0  0  0  0  0
   -0.1231   -3.1566   -2.5725 H   0  0  0  0  0  0  0  0  0  0  0  0
    1.6363   -4.0953   -3.5217 H   0  0  0  0  0  0  0  0  0  0  0  0
    2.5919   -2.6815   -3.5948 H   0  0  0  0  0  0  0  0  0  0  0  0
    6.0781   -2.4744    0.0316 H   0  0  0  0  0  0  0  0  0  0  0  0
    6.7802    0.3582    1.0487 H   0  0  0  0  0  0  0  0  0  0  0  0
    6.6729    0.7788   -0.7854 H   0  0  0  0  0  0  0  0  0  0  0  0
    7.7132    0.3118    0.0000 H   0  0  0  0  0  0  0  0  0  0  0  0
    4.8087    1.5408    0.4952 H   0  0  0  0  0  0  0  0  0  0  0  0
    2.3252    1.8183    0.0520 H   0  0  0  0  0  0  0  0  0  0  0  0
    2.0064    1.2786   -1.6482 H   0  0  0  0  0  0  0  0  0  0  0  0
    3.3896    2.3082   -1.2818 H   0  0  0  0  0  0  0  0  0  0  0  0
   -1.9778   -1.8491   -1.4488 H   0  0  0  0  0  0  0  0  0  0  0  0
   -4.2378   -0.9592   -1.5397 H   0  0  0  0  0  0  0  0  0  0  0  0
   -4.6261    1.4671   -1.1459 H   0  0  0  0  0  0  0  0  0  0  0  0
   -2.7250    2.9844   -0.8873 H   0  0  0  0  0  0  0  0  0  0  0  0
  1  2  1  0  0  0  0
  1 37  1  0  0  0  0
  1 38  1  0  0  0  0
  1 39  1  0  0  0  0
  2  3  2  0  0  0  0
  2  4  1  0  0  0  0
  4  5  1  0  0  0  0
  4 40  1  0  0  0  0
  4 41  1  0  0  0  0
  5  6  2  0  0  0  0
  5  7  1  0  0  0  0
  7  8  1  0  0  0  0
  7  9  1  0  0  0  0
  7 42  1  6  0  0  0
  8 43  1  0  0  0  0
  9 10  2  0  0  0  0
  9 11  1  0  0  0  0
 11 12  1  0  0  0  0
 11 28  1  0  0  0  0
 11 44  1  6  0  0  0
 12 13  1  0  0  0  0
 12 45  1  0  0  0  0
 12 46  1  0  0  0  0
 13 14  1  0  0  0  0
 13 47  1  0  0  0  0
 13 48  1  0  0  0  0
 14 18  1  0  0  0  0
 14 15  1  0  0  0  0
 15 16  2  0  0  0  0
 16 17  1  0  0  0  0
 17 18  2  0  0  0  0
 18 19  1  0  0  0  0
 19 26  1  0  0  0  0
 19 20  2  0  0  0  0
 20 21  1  0  0  0  0
 20 49  1  0  0  0  0
 21 22  1  0  0  0  0
 21 23  2  0  0  0  0
 22 50  1  0  0  0  0
 22 51  1  0  0  0  0
 22 52  1  0  0  0  0
 23 24  1  0  0  0  0
 23 53  1  0  0  0  0
 24 25  1  0  0  0  0
 24 26  1  0  0  0  0
 25 54  1  0  0  0  0
 25 55  1  0  0  0  0
 25 56  1  0  0  0  0
 26 27  2  0  0  0  0
 28 29  2  0  0  0  0
 28 30  1  0  0  0  0
 30 35  2  0  0  0  0
 30 31  1  0  0  0  0
 31 32  2  0  0  0  0
 31 57  1  0  0  0  0
 32 33  1  0  0  0  0
 32 58  1  0  0  0  0
 33 34  2  0  0  0  0
 33 59  1  0  0  0  0
 34 35  1  0  0  0  0
 34 60  1  0  0  0  0
 35 36  1  0  0  0  0
M  CHG  1  36  -1
M  END
$$$$
