
 OpenBabel03202621352D

 20 19  0  0  1  0  0  0  0  0999 V2000
    2.5981   -1.5000    0.0000 C   0  0  0  0  0  0  0  0  0  0  0  0
    3.4641   -1.0000    0.0000 S   0  0  0  0  0  0  0  0  0  0  0  0
    3.5440    0.1261   -1.1235 C   0  0  0  0  0  0  0  0  0  0  0  0
    4.4234    0.6142   -1.7861 O   0  0  0  0  0  0  0  0  0  0  0  0
    2.5981    0.5000    0.0000 C   0  0  2  0  0  0  0  0  0  0  0  0
    2.5981    1.5000    0.0000 C   0  0  0  0  0  0  0  0  0  0  0  0
    0.8362    0.1971    0.3328 C   0  0  0  0  0  0  0  0  0  0  0  0
   -0.1328    1.3334   -0.0443 C   0  0  0  0  0  0  0  0  0  0  0  0
    0.0218    2.3932    0.7798 F   0  0  0  0  0  0  0  0  0  0  0  0
   -1.4075    0.8947    0.1263 F   0  0  0  0  0  0  0  0  0  0  0  0
    2.6429   -1.9265    1.0255 H   0  0  0  0  0  0  0  0  0  0  0  0
    2.8637   -2.3271   -0.6933 H   0  0  0  0  0  0  0  0  0  0  0  0
    1.6715   -2.0350    0.0000 H   0  0  0  0  0  0  0  0  0  0  0  0
    2.0023    0.5500   -1.0066 H   0  0  0  0  0  0  0  0  0  0  0  0
    3.6808    1.7323    0.2300 H   0  0  0  0  0  0  0  0  0  0  0  0
    2.2223    1.6809    1.0427 H   0  0  0  0  0  0  0  0  0  0  0  0
    2.5981    2.5700    0.0000 H   0  0  0  0  0  0  0  0  0  0  0  0
    0.4593   -0.6377   -0.2729 H   0  0  0  0  0  0  0  0  0  0  0  0
    0.7299   -0.0598    1.3950 H   0  0  0  0  0  0  0  0  0  0  0  0
   -0.0238    1.6579   -1.0850 H   0  0  0  0  0  0  0  0  0  0  0  0
  1  2  1  0  0  0  0
  1 11  1  0  0  0  0
  1 12  1  0  0  0  0
  1 13  1  0  0  0  0
  2  3  1  0  0  0  0
  3  4  2  0  0  0  0
  3  5  1  0  0  0  0
  5  6  1  0  0  0  0
  5  7  1  0  0  0  0
  5 14  1  6  0  0  0
  6 15  1  0  0  0  0
  6 16  1  0  0  0  0
  6 17  1  0  0  0  0
  7  8  1  0  0  0  0
  7 18  1  0  0  0  0
  7 19  1  0  0  0  0
  8  9  1  0  0  0  0
  8 10  1  0  0  0  0
  8 20  1  0  0  0  0
M  END
$$$$
