
 OpenBabel03202621352D

 22 22  0  0  1  0  0  0  0  0999 V2000
    2.3859   -0.8070    0.0994 O   0  0  0  0  0  0  0  0  0  0  0  0
    1.1992   -1.1281    0.0279 C   0  0  0  0  0  0  0  0  0  0  0  0
    0.7659   -2.5197    0.4171 C   0  0  0  0  0  0  0  0  0  0  0  0
   -0.6141   -2.8145   -0.1273 C   0  0  0  0  0  0  0  0  0  0  0  0
   -1.5545   -1.7880    0.1942 O   0  0  0  0  0  0  0  0  0  0  0  0
   -1.1281   -0.5485   -0.2016 C   0  0  0  0  0  0  0  0  0  0  0  0
    0.1391   -0.1459   -0.3553 C   0  0  0  0  0  0  0  0  0  0  0  0
    0.4014    1.1107   -0.8734 O   0  0  0  0  0  0  0  0  0  0  0  0
    1.4384    1.8798   -0.2533 C   0  0  3  0  0  0  0  0  0  0  0  0
    2.8763    1.8770   -1.3224 Cl  0  0  0  0  0  0  0  0  0  0  0  0
    0.9363    3.3494   -0.1054 C   0  0  0  0  0  0  0  0  0  0  0  0
    1.9315    4.2655    0.3247 O   0  0  0  0  0  0  0  0  0  0  0  0
   -0.0961    3.4228    0.8694 O   0  0  0  0  0  0  0  0  0  0  0  0
    1.4808   -3.2425    0.0108 H   0  0  0  0  0  0  0  0  0  0  0  0
    0.7736   -2.5786    1.5099 H   0  0  0  0  0  0  0  0  0  0  0  0
   -0.5944   -2.9444   -1.2179 H   0  0  0  0  0  0  0  0  0  0  0  0
   -0.9880   -3.7513    0.2985 H   0  0  0  0  0  0  0  0  0  0  0  0
   -1.9743    0.1068   -0.3703 H   0  0  0  0  0  0  0  0  0  0  0  0
    1.7170    1.4983    0.7364 H   0  0  0  0  0  0  0  0  0  0  0  0
    0.5222    3.7008   -1.0572 H   0  0  0  0  0  0  0  0  0  0  0  0
    2.6683    3.7512    0.6958 H   0  0  0  0  0  0  0  0  0  0  0  0
   -0.4217    4.3381    0.8028 H   0  0  0  0  0  0  0  0  0  0  0  0
  1  2  2  0  0  0  0
  2  7  1  0  0  0  0
  2  3  1  0  0  0  0
  3  4  1  0  0  0  0
  3 14  1  0  0  0  0
  3 15  1  0  0  0  0
  4  5  1  0  0  0  0
  4 16  1  0  0  0  0
  4 17  1  0  0  0  0
  5  6  1  0  0  0  0
  6  7  2  0  0  0  0
  6 18  1  0  0  0  0
  7  8  1  0  0  0  0
  8  9  1  0  0  0  0
  9 10  1  0  0  0  0
  9 11  1  0  0  0  0
  9 19  1  0  0  0  0
 11 12  1  0  0  0  0
 11 13  1  0  0  0  0
 11 20  1  0  0  0  0
 12 21  1  0  0  0  0
 13 22  1  0  0  0  0
M  END
$$$$
