
 OpenBabel03202621302D

 24 23  0  0  0  0  0  0  0  0999 V2000
    3.4641   -2.0000    0.0000 C   0  0  0  0  0  0  0  0  0  0  0  0
    4.3301   -1.5000    0.0000 C   0  0  0  0  0  0  0  0  0  0  0  0
    4.4656   -0.3849   -0.8517 C   0  0  0  0  0  0  0  0  0  0  0  0
    5.2638   -0.0321   -1.5353 O   0  0  0  0  0  0  0  0  0  0  0  0
    3.4641    0.0000    0.0000 N   0  0  0  0  0  0  0  0  0  0  0  0
    3.4641    1.0000    0.0000 C   0  0  0  0  0  0  0  0  0  0  0  0
    2.8300   -0.1256    1.4372 C   0  0  0  0  0  0  0  0  0  0  0  0
    1.5386    0.5085    1.2619 C   0  0  0  0  0  0  0  0  0  0  0  0
    1.2102    1.7134    1.5133 O   0  0  0  0  0  0  0  0  0  0  0  0
    0.8660   -0.5000    0.0000 S   0  0  0  0  0  0  0  0  0  0  0  0
    0.0000    0.0000    0.0000 C   0  0  0  0  0  0  0  0  0  0  0  0
    3.5723   -2.5784    0.9678 H   0  0  0  0  0  0  0  0  0  0  0  0
    3.6556   -2.8104   -0.7631 H   0  0  0  0  0  0  0  0  0  0  0  0
    2.5375   -2.5350    0.0000 H   0  0  0  0  0  0  0  0  0  0  0  0
    5.1839   -2.1025   -0.4157 H   0  0  0  0  0  0  0  0  0  0  0  0
    4.8983   -1.2967    0.9484 H   0  0  0  0  0  0  0  0  0  0  0  0
    4.4642    1.2405    0.4567 H   0  0  0  0  0  0  0  0  0  0  0  0
    3.3105    1.2451   -1.0844 H   0  0  0  0  0  0  0  0  0  0  0  0
    3.4641    2.0700    0.0000 H   0  0  0  0  0  0  0  0  0  0  0  0
    2.4709   -0.9609    1.1177 H   0  0  0  0  0  0  0  0  0  0  0  0
    2.9262   -0.9440    2.1702 H   0  0  0  0  0  0  0  0  0  0  0  0
    0.0913    0.5100   -0.9812 H   0  0  0  0  0  0  0  0  0  0  0  0
   -0.6906   -0.8547   -0.1373 H   0  0  0  0  0  0  0  0  0  0  0  0
   -0.9266    0.5350    0.0000 H   0  0  0  0  0  0  0  0  0  0  0  0
  1  2  1  0  0  0  0
  1 12  1  0  0  0  0
  1 13  1  0  0  0  0
  1 14  1  0  0  0  0
  2  3  1  0  0  0  0
  2 15  1  0  0  0  0
  2 16  1  0  0  0  0
  3  4  2  0  0  0  0
  3  5  1  0  0  0  0
  5  6  1  0  0  0  0
  5  7  1  0  0  0  0
  6 17  1  0  0  0  0
  6 18  1  0  0  0  0
  6 19  1  0  0  0  0
  7  8  1  0  0  0  0
  7 20  1  0  0  0  0
  7 21  1  0  0  0  0
  8  9  2  0  0  0  0
  8 10  1  0  0  0  0
 10 11  1  0  0  0  0
 11 22  1  0  0  0  0
 11 23  1  0  0  0  0
 11 24  1  0  0  0  0
M  END
$$$$
