
 OpenBabel03202621382D

 27 28  0  0  1  0  0  0  0  0999 V2000
   -0.0933   -1.7796    0.0000 C   0  0  0  0  0  0  0  0  0  0  0  0
   -0.5000   -0.8660    0.0000 C   0  0  0  0  0  0  0  0  0  0  0  0
   -1.6955   -0.3807    0.5138 C   0  0  0  0  0  0  0  0  0  0  0  0
   -1.9104    0.8228   -0.1110 N   0  0  0  0  0  0  0  0  0  0  0  0
   -3.1388    1.5923   -0.3350 C   0  0  1  0  0  0  0  0  0  0  0  0
   -3.0667    2.8608    0.4888 C   0  0  0  0  0  0  0  0  0  0  0  0
   -2.7953    2.9594    1.6749 O   0  0  0  0  0  0  0  0  0  0  0  0
   -3.4243    3.9678   -0.2098 O   0  0  0  0  0  0  0  0  0  0  0  0
   -4.4345    0.7908   -0.1870 C   0  0  0  0  0  0  0  0  0  0  0  0
   -4.5680   -0.4704   -0.8026 C   0  0  0  0  0  0  0  0  0  0  0  0
   -5.7464   -1.2104   -0.6896 C   0  0  0  0  0  0  0  0  0  0  0  0
   -6.8357   -0.6829   -0.0051 C   0  0  0  0  0  0  0  0  0  0  0  0
   -6.7475    0.5840    0.5631 C   0  0  0  0  0  0  0  0  0  0  0  0
   -5.5594    1.3145    0.4745 C   0  0  0  0  0  0  0  0  0  0  0  0
   -0.8038    1.2055   -0.7675 N   0  0  0  0  0  0  0  0  0  0  0  0
    0.0488    0.2008   -0.7172 N   0  0  0  0  0  0  0  0  0  0  0  0
   -0.1541   -2.0164   -1.0891 H   0  0  0  0  0  0  0  0  0  0  0  0
    0.9510   -1.5305    0.3040 H   0  0  0  0  0  0  0  0  0  0  0  0
    0.3419   -2.7571    0.0000 H   0  0  0  0  0  0  0  0  0  0  0  0
   -2.4563   -0.8474    1.1248 H   0  0  0  0  0  0  0  0  0  0  0  0
   -3.0923    1.8904   -1.3937 H   0  0  0  0  0  0  0  0  0  0  0  0
   -3.3170    4.7066    0.4260 H   0  0  0  0  0  0  0  0  0  0  0  0
   -3.7459   -0.9022   -1.3727 H   0  0  0  0  0  0  0  0  0  0  0  0
   -5.8145   -2.1961   -1.1433 H   0  0  0  0  0  0  0  0  0  0  0  0
   -7.7574   -1.2528    0.0748 H   0  0  0  0  0  0  0  0  0  0  0  0
   -7.6074    1.0093    1.0752 H   0  0  0  0  0  0  0  0  0  0  0  0
   -5.5455    2.3045    0.9266 H   0  0  0  0  0  0  0  0  0  0  0  0
  1  2  1  0  0  0  0
  1 17  1  0  0  0  0
  1 18  1  0  0  0  0
  1 19  1  0  0  0  0
  2 16  1  0  0  0  0
  2  3  2  0  0  0  0
  3  4  1  0  0  0  0
  3 20  1  0  0  0  0
  4  5  1  0  0  0  0
  4 15  1  0  0  0  0
  5  6  1  0  0  0  0
  5  9  1  0  0  0  0
  5 21  1  1  0  0  0
  6  7  2  0  0  0  0
  6  8  1  0  0  0  0
  8 22  1  0  0  0  0
  9 14  2  0  0  0  0
  9 10  1  0  0  0  0
 10 11  2  0  0  0  0
 10 23  1  0  0  0  0
 11 12  1  0  0  0  0
 11 24  1  0  0  0  0
 12 13  2  0  0  0  0
 12 25  1  0  0  0  0
 13 14  1  0  0  0  0
 13 26  1  0  0  0  0
 14 27  1  0  0  0  0
 15 16  2  0  0  0  0
M  END
$$$$
