
 OpenBabel03202621362D

 27 27  0  0  0  0  0  0  0  0999 V2000
    2.5981   -1.5000    0.0000 C   0  0  0  0  0  0  0  0  0  0  0  0
    2.5981   -0.5000    0.0000 C   0  0  0  0  0  0  0  0  0  0  0  0
    1.5140    0.0134    0.8641 O   0  0  0  0  0  0  0  0  0  0  0  0
    0.3819   -0.3393    0.1541 C   0  0  0  0  0  0  0  0  0  0  0  0
    0.2065   -1.7225   -0.0937 C   0  0  0  0  0  0  0  0  0  0  0  0
   -0.0650   -2.1208   -1.3930 C   0  0  0  0  0  0  0  0  0  0  0  0
   -0.5704   -1.1614   -2.2557 C   0  0  0  0  0  0  0  0  0  0  0  0
   -0.8171    0.1381   -1.7668 C   0  0  0  0  0  0  0  0  0  0  0  0
   -2.1636    0.5469   -1.8055 N   0  0  0  0  0  0  0  0  0  0  0  0
   -3.0321    0.0294   -0.8364 C   0  0  0  0  0  0  0  0  0  0  0  0
   -4.0697    0.6211   -0.5650 O   0  0  0  0  0  0  0  0  0  0  0  0
   -2.5981   -1.5000    0.0000 S   0  0  0  0  0  0  0  0  0  0  0  0
   -3.4641   -2.0000    0.0000 C   0  0  0  0  0  0  0  0  0  0  0  0
   -0.1360    0.6287   -0.6699 C   0  0  0  0  0  0  0  0  0  0  0  0
    2.9628   -1.6942    1.0430 H   0  0  0  0  0  0  0  0  0  0  0  0
    3.4568   -1.6763   -0.6938 H   0  0  0  0  0  0  0  0  0  0  0  0
    2.5981   -2.5700    0.0000 H   0  0  0  0  0  0  0  0  0  0  0  0
    2.4723    0.0175   -0.9693 H   0  0  0  0  0  0  0  0  0  0  0  0
    3.4855    0.0417    0.3795 H   0  0  0  0  0  0  0  0  0  0  0  0
    0.4830   -2.4478    0.6716 H   0  0  0  0  0  0  0  0  0  0  0  0
   -0.0453   -3.1723   -1.6533 H   0  0  0  0  0  0  0  0  0  0  0  0
   -1.0494   -1.4870   -3.1662 H   0  0  0  0  0  0  0  0  0  0  0  0
   -2.3314    1.5481   -1.8438 H   0  0  0  0  0  0  0  0  0  0  0  0
   -3.8538   -1.6852    0.9898 H   0  0  0  0  0  0  0  0  0  0  0  0
   -3.0685   -3.0275    0.1125 H   0  0  0  0  0  0  0  0  0  0  0  0
   -4.3907   -2.5350    0.0000 H   0  0  0  0  0  0  0  0  0  0  0  0
   -0.1347    1.6722   -0.3643 H   0  0  0  0  0  0  0  0  0  0  0  0
  1  2  1  0  0  0  0
  1 15  1  0  0  0  0
  1 16  1  0  0  0  0
  1 17  1  0  0  0  0
  2  3  1  0  0  0  0
  2 18  1  0  0  0  0
  2 19  1  0  0  0  0
  3  4  1  0  0  0  0
  4 14  2  0  0  0  0
  4  5  1  0  0  0  0
  5  6  2  0  0  0  0
  5 20  1  0  0  0  0
  6  7  1  0  0  0  0
  6 21  1  0  0  0  0
  7  8  2  0  0  0  0
  7 22  1  0  0  0  0
  8  9  1  0  0  0  0
  8 14  1  0  0  0  0
  9 10  1  0  0  0  0
  9 23  1  0  0  0  0
 10 11  2  0  0  0  0
 10 12  1  0  0  0  0
 12 13  1  0  0  0  0
 13 24  1  0  0  0  0
 13 25  1  0  0  0  0
 13 26  1  0  0  0  0
 14 27  1  0  0  0  0
M  END
$$$$
