
 OpenBabel03202621282D

  8  8  0  0  0  0  0  0  0  0999 V2000
    1.4659   -0.6072    0.0000 N   0  0  0  0  0  0  0  0  0  0  0  0
    0.5000   -0.8660    0.0000 C   0  0  0  0  0  0  0  0  0  0  0  0
    0.9289   -1.7694    0.0000 C   0  0  0  0  0  0  0  0  0  0  0  0
    1.9257   -1.8496    0.0000 O   0  0  0  0  0  0  0  0  0  0  0  0
    2.3546   -2.7530    0.0000 C   0  0  0  0  0  0  0  0  0  0  0  0
    3.3514   -2.8332    0.0000 O   0  0  0  0  0  0  0  0  0  0  0  0
   -0.5000   -0.8660    0.0000 C   0  0  0  0  0  0  0  0  0  0  0  0
    0.0000   -0.0000    0.0000 C   0  0  0  0  0  0  0  0  0  0  0  0
  1  2  1  0  0  0  0
  2  8  1  0  0  0  0
  2  3  1  0  0  0  0
  2  7  1  0  0  0  0
  3  4  1  0  0  0  0
  4  5  1  0  0  0  0
  5  6  2  0  0  0  0
  7  8  1  0  0  0  0
M  END
$$$$
