
 OpenBabel03202621402D

 46 47  0  0  1  0  0  0  0  0999 V2000
    2.6340   -2.3660    0.0000 C   0  0  0  0  0  0  0  0  0  0  0  0
    3.5000   -1.8660    0.0000 C   0  0  0  0  0  0  0  0  0  0  0  0
    3.5000   -0.8660    0.0000 C   0  0  2  0  0  0  0  0  0  0  0  0
    4.5000   -0.8660    0.0000 O   0  0  0  0  0  0  0  0  0  0  0  0
    3.5000    0.1340    0.0000 C   0  0  0  0  0  0  0  0  0  0  0  0
    3.8701    1.7973    0.6009 C   0  0  0  0  0  0  0  0  0  0  0  0
    4.6656    3.0587    0.8840 C   0  0  0  0  0  0  0  0  0  0  0  0
    5.9216    3.0696    0.3938 C   0  0  0  0  0  0  0  0  0  0  0  0
    6.1549    1.9404   -0.3583 C   0  0  0  0  0  0  0  0  0  0  0  0
    5.0545    0.8236   -0.6414 C   0  0  0  0  0  0  0  0  0  0  0  0
    2.5000   -0.8660    0.0000 C   0  0  2  0  0  0  0  0  0  0  0  0
    2.5000    0.1340    0.0000 C   0  0  0  0  0  0  0  0  0  0  0  0
    1.5000   -0.8660    0.0000 O   0  0  0  0  0  0  0  0  0  0  0  0
    0.1725   -0.0221   -0.1759 C   0  0  0  0  0  0  0  0  0  0  0  0
    0.1055    1.3091   -0.4574 C   0  0  0  0  0  0  0  0  0  0  0  0
   -1.0058    2.1000   -0.6152 O   0  0  0  0  0  0  0  0  0  0  0  0
   -2.1458    1.6732    0.1174 C   0  0  0  0  0  0  0  0  0  0  0  0
   -2.4107    0.2131   -0.1136 C   0  0  0  0  0  0  0  0  0  0  0  0
   -1.1673   -0.6700   -0.0668 C   0  0  0  0  0  0  0  0  0  0  0  0
   -1.2591   -1.8532   -0.0165 O   0  0  0  0  0  0  0  0  0  0  0  0
    2.5000   -1.8660    0.0000 C   0  0  0  0  0  0  0  0  0  0  0  0
    2.0261   -2.1240    1.5542 O   0  0  0  0  0  0  0  0  0  0  0  0
    3.0497   -2.9552   -1.4873 O   0  0  0  0  0  0  0  0  0  0  0  0
    4.0902   -4.2058   -1.2485 C   0  0  0  0  0  0  0  0  0  0  0  0
    1.5896   -2.4489   -1.1681 H   0  0  0  0  0  0  0  0  0  0  0  0
    2.8812   -3.5862    0.4689 H   0  0  0  0  0  0  0  0  0  0  0  0
    1.7074   -2.9010    0.0000 H   0  0  0  0  0  0  0  0  0  0  0  0
    4.1317   -2.3949    0.9704 H   0  0  0  0  0  0  0  0  0  0  0  0
    4.4389   -2.2963   -0.7468 H   0  0  0  0  0  0  0  0  0  0  0  0
    5.1280   -0.9920    0.7696 H   0  0  0  0  0  0  0  0  0  0  0  0
    3.2918    2.4793   -0.2478 H   0  0  0  0  0  0  0  0  0  0  0  0
    4.1208    4.0225    0.8905 H   0  0  0  0  0  0  0  0  0  0  0  0
    6.5772    3.9338    0.4453 H   0  0  0  0  0  0  0  0  0  0  0  0
    7.1832    1.7609   -0.6876 H   0  0  0  0  0  0  0  0  0  0  0  0
    5.6875    0.0671   -1.1869 H   0  0  0  0  0  0  0  0  0  0  0  0
    1.9132    0.5215    1.0954 H   0  0  0  0  0  0  0  0  0  0  0  0
    2.0855    0.4708   -1.1966 H   0  0  0  0  0  0  0  0  0  0  0  0
    2.5000    1.2040    0.0000 H   0  0  0  0  0  0  0  0  0  0  0  0
    0.8855    1.9717   -0.6164 H   0  0  0  0  0  0  0  0  0  0  0  0
   -2.0111    1.9082    1.1709 H   0  0  0  0  0  0  0  0  0  0  0  0
   -2.9839    2.2641   -0.2391 H   0  0  0  0  0  0  0  0  0  0  0  0
   -3.1191   -0.1450    0.6505 H   0  0  0  0  0  0  0  0  0  0  0  0
   -2.8728    0.0711   -1.1033 H   0  0  0  0  0  0  0  0  0  0  0  0
    3.6639   -5.1710   -1.3880 H   0  0  0  0  0  0  0  0  0  0  0  0
    4.5465   -4.1503   -0.2079 H   0  0  0  0  0  0  0  0  0  0  0  0
    4.9555   -3.9883   -1.9007 H   0  0  0  0  0  0  0  0  0  0  0  0
  1  2  1  0  0  0  0
  1 25  1  0  0  0  0
  1 26  1  0  0  0  0
  1 27  1  0  0  0  0
  2  3  1  0  0  0  0
  2 28  1  0  0  0  0
  2 29  1  0  0  0  0
  3  4  1  6  0  0  0
  3  5  1  0  0  0  0
  3 11  1  0  0  0  0
  4 30  1  0  0  0  0
  5 10  2  0  0  0  0
  5  6  1  0  0  0  0
  6  7  2  0  0  0  0
  6 31  1  0  0  0  0
  7  8  1  0  0  0  0
  7 32  1  0  0  0  0
  8  9  2  0  0  0  0
  8 33  1  0  0  0  0
  9 10  1  0  0  0  0
  9 34  1  0  0  0  0
 10 35  1  0  0  0  0
 11 12  1  0  0  0  0
 11 13  1  1  0  0  0
 11 21  1  0  0  0  0
 12 36  1  0  0  0  0
 12 37  1  0  0  0  0
 12 38  1  0  0  0  0
 13 14  1  0  0  0  0
 14 19  1  0  0  0  0
 14 15  2  0  0  0  0
 15 16  1  0  0  0  0
 15 39  1  0  0  0  0
 16 17  1  0  0  0  0
 17 18  1  0  0  0  0
 17 40  1  0  0  0  0
 17 41  1  0  0  0  0
 18 19  1  0  0  0  0
 18 42  1  0  0  0  0
 18 43  1  0  0  0  0
 19 20  2  0  0  0  0
 21 22  2  0  0  0  0
 21 23  1  0  0  0  0
 23 24  1  0  0  0  0
 24 44  1  0  0  0  0
 24 45  1  0  0  0  0
 24 46  1  0  0  0  0
M  END
$$$$
