
 OpenBabel03202621332D

 26 27  0  0  0  0  0  0  0  0999 V2000
    4.6833   -1.5014   -0.0122 N   0  0  0  0  0  0  0  0  0  0  0  0
    4.1309   -0.3397   -0.0520 C   0  0  0  0  0  0  0  0  0  0  0  0
    2.8962    0.0332   -0.4718 N   0  0  0  0  0  0  0  0  0  0  0  0
    1.6654   -0.6124   -0.3468 C   0  0  0  0  0  0  0  0  0  0  0  0
    1.4838   -1.8209    0.3046 C   0  0  0  0  0  0  0  0  0  0  0  0
    0.1909   -2.3029    0.5010 C   0  0  0  0  0  0  0  0  0  0  0  0
   -0.8871   -1.5714    0.0346 C   0  0  0  0  0  0  0  0  0  0  0  0
   -2.1269   -2.1380    0.2969 O   0  0  0  0  0  0  0  0  0  0  0  0
   -3.3314   -1.4548    0.1562 C   0  0  0  0  0  0  0  0  0  0  0  0
   -4.3833   -2.1439   -0.3063 C   0  0  0  0  0  0  0  0  0  0  0  0
   -5.7225   -1.4970   -0.3970 C   0  0  0  0  0  0  0  0  0  0  0  0
   -5.6690   -0.0742   -0.5731 O   0  0  0  0  0  0  0  0  0  0  0  0
   -4.6908    0.5080    0.1972 C   0  0  0  0  0  0  0  0  0  0  0  0
   -3.5840   -0.0928    0.6752 C   0  0  0  0  0  0  0  0  0  0  0  0
   -2.7481    0.3140    1.5217 O   0  5  0  0  0  0  0  0  0  0  0  0
   -0.6926   -0.4743   -0.7200 N   0  0  0  0  0  0  0  0  0  0  0  0
    0.5962    0.0205   -0.8787 N   0  0  0  0  0  0  0  0  0  0  0  0
    4.0409   -2.1931   -0.4064 H   0  0  0  0  0  0  0  0  0  0  0  0
    4.7421    0.5289    0.2477 H   0  0  0  0  0  0  0  0  0  0  0  0
    2.7295    1.0021   -0.7206 H   0  0  0  0  0  0  0  0  0  0  0  0
    2.3079   -2.3721    0.7386 H   0  0  0  0  0  0  0  0  0  0  0  0
    0.0177   -3.2261    1.0412 H   0  0  0  0  0  0  0  0  0  0  0  0
   -4.2809   -3.1857   -0.5817 H   0  0  0  0  0  0  0  0  0  0  0  0
   -6.2725   -1.9093   -1.2497 H   0  0  0  0  0  0  0  0  0  0  0  0
   -6.3108   -1.7204    0.5038 H   0  0  0  0  0  0  0  0  0  0  0  0
   -4.9381    1.5422    0.4153 H   0  0  0  0  0  0  0  0  0  0  0  0
  1  2  2  0  0  0  0
  1 18  1  0  0  0  0
  2  3  1  0  0  0  0
  2 19  1  0  0  0  0
  3  4  1  0  0  0  0
  3 20  1  0  0  0  0
  4 17  2  0  0  0  0
  4  5  1  0  0  0  0
  5  6  2  0  0  0  0
  5 21  1  0  0  0  0
  6  7  1  0  0  0  0
  6 22  1  0  0  0  0
  7  8  1  0  0  0  0
  7 16  2  0  0  0  0
  8  9  1  0  0  0  0
  9 14  1  0  0  0  0
  9 10  2  0  0  0  0
 10 11  1  0  0  0  0
 10 23  1  0  0  0  0
 11 12  1  0  0  0  0
 11 24  1  0  0  0  0
 11 25  1  0  0  0  0
 12 13  1  0  0  0  0
 13 14  2  0  0  0  0
 13 26  1  0  0  0  0
 14 15  1  0  0  0  0
 16 17  1  0  0  0  0
M  CHG  1  15  -1
M  END
$$$$
