
 OpenBabel03202621322D

 15 14  0  0  0  0  0  0  0  0999 V2000
    4.3301   -1.5000    0.0000 C   0  0  0  0  0  0  0  0  0  0  0  0
    4.3301   -0.5000    0.0000 S   0  0  0  0  0  0  0  0  0  0  0  0
    2.9034    0.4250   -0.3320 C   0  0  0  0  0  0  0  0  0  0  0  0
    2.9959    1.5140   -0.8702 O   0  0  0  0  0  0  0  0  0  0  0  0
    1.7564   -0.1734    0.1007 N   0  0  0  0  0  0  0  0  0  0  0  0
    0.4686    0.3010   -0.1653 C   0  0  0  0  0  0  0  0  0  0  0  0
    0.2087    1.4217   -0.5942 O   0  0  0  0  0  0  0  0  0  0  0  0
   -0.6034   -0.7520    0.1327 C   0  0  0  0  0  0  0  0  0  0  0  0
   -1.1257   -1.2916   -1.0007 F   0  0  0  0  0  0  0  0  0  0  0  0
   -0.0764   -1.8005    0.8369 F   0  0  0  0  0  0  0  0  0  0  0  0
   -1.6390   -0.2771    0.8696 F   0  0  0  0  0  0  0  0  0  0  0  0
    3.9976   -1.6957   -1.0404 H   0  0  0  0  0  0  0  0  0  0  0  0
    5.4231   -1.6704    0.0324 H   0  0  0  0  0  0  0  0  0  0  0  0
    4.3301   -2.5700    0.0000 H   0  0  0  0  0  0  0  0  0  0  0  0
    1.8406   -1.0855    0.5287 H   0  0  0  0  0  0  0  0  0  0  0  0
  1  2  1  0  0  0  0
  1 12  1  0  0  0  0
  1 13  1  0  0  0  0
  1 14  1  0  0  0  0
  2  3  1  0  0  0  0
  3  4  2  0  0  0  0
  3  5  1  0  0  0  0
  5  6  1  0  0  0  0
  5 15  1  0  0  0  0
  6  7  2  0  0  0  0
  6  8  1  0  0  0  0
  8  9  1  0  0  0  0
  8 10  1  0  0  0  0
  8 11  1  0  0  0  0
M  END
$$$$
