
 OpenBabel03202621352D

 23 23  0  0  1  0  0  0  0  0999 V2000
    1.7321    0.0000    0.0000 C   0  0  0  0  0  0  0  0  0  0  0  0
    0.8660   -0.5000    0.0000 C   0  0  2  0  0  0  0  0  0  0  0  0
    0.8189   -2.0016    0.4294 C   0  0  0  0  0  0  0  0  0  0  0  0
   -0.4413   -2.7163   -0.0085 C   0  0  0  0  0  0  0  0  0  0  0  0
   -0.3971   -3.8796   -0.4135 O   0  0  0  0  0  0  0  0  0  0  0  0
   -1.7611   -2.0511    0.2565 C   0  0  0  0  0  0  0  0  0  0  0  0
   -1.7615   -0.5588    0.0048 C   0  0  0  0  0  0  0  0  0  0  0  0
   -0.5040    0.2107    0.4386 C   0  0  1  0  0  0  0  0  0  0  0  0
   -0.5428    1.5138   -0.2222 O   0  0  0  0  0  0  0  0  0  0  0  0
   -1.5106    2.4113    0.0349 C   0  0  0  0  0  0  0  0  0  0  0  0
   -1.5530    3.5327   -0.4562 O   0  0  0  0  0  0  0  0  0  0  0  0
    2.3118   -0.5465    0.7825 H   0  0  0  0  0  0  0  0  0  0  0  0
    1.4770    0.9559    0.5081 H   0  0  0  0  0  0  0  0  0  0  0  0
    2.6588    0.5350    0.0000 H   0  0  0  0  0  0  0  0  0  0  0  0
    0.6334   -0.6157   -1.0760 H   0  0  0  0  0  0  0  0  0  0  0  0
    0.9140   -2.1175    1.5148 H   0  0  0  0  0  0  0  0  0  0  0  0
    1.6521   -2.5383   -0.0484 H   0  0  0  0  0  0  0  0  0  0  0  0
   -2.0493   -2.2702    1.2906 H   0  0  0  0  0  0  0  0  0  0  0  0
   -2.5109   -2.5088   -0.4015 H   0  0  0  0  0  0  0  0  0  0  0  0
   -2.6340   -0.1357    0.5139 H   0  0  0  0  0  0  0  0  0  0  0  0
   -1.9398   -0.3708   -1.0627 H   0  0  0  0  0  0  0  0  0  0  0  0
   -0.5036    0.3678    1.5267 H   0  0  0  0  0  0  0  0  0  0  0  0
   -2.2800    2.0306    0.7258 H   0  0  0  0  0  0  0  0  0  0  0  0
  1 12  1  0  0  0  0
  1 13  1  0  0  0  0
  1 14  1  0  0  0  0
  2  1  1  0  0  0  0
  2  3  1  0  0  0  0
  2  8  1  0  0  0  0
  2 15  1  1  0  0  0
  3  4  1  0  0  0  0
  3 16  1  0  0  0  0
  3 17  1  0  0  0  0
  4  5  2  0  0  0  0
  4  6  1  0  0  0  0
  6  7  1  0  0  0  0
  6 18  1  0  0  0  0
  6 19  1  0  0  0  0
  7  8  1  0  0  0  0
  7 20  1  0  0  0  0
  7 21  1  0  0  0  0
  8  9  1  0  0  0  0
  8 22  1  6  0  0  0
  9 10  1  0  0  0  0
 10 11  2  0  0  0  0
 10 23  1  0  0  0  0
M  END
$$$$
