
 OpenBabel03202621282D

 37 38  0  0  1  0  0  0  0  0999 V2000
   -1.3660   -2.3660    0.0000 C   0  0  0  0  0  0  0  0  0  0  0  0
   -1.3660   -1.3660    0.0000 C   0  0  0  0  0  0  0  0  0  0  0  0
   -2.2321   -0.8660    0.0000 C   0  0  1  0  0  0  0  0  0  0  0  0
   -2.7321   -1.7321    0.0000 C   0  0  0  0  0  0  0  0  0  0  0  0
   -3.0981   -0.3660    0.0000 O   0  0  0  0  0  0  0  0  0  0  0  0
   -3.9641   -0.8660    0.0000 C   0  0  0  0  0  0  0  0  0  0  0  0
   -3.9641   -1.8660    0.0000 C   0  0  0  0  0  0  0  0  0  0  0  0
   -4.8301   -2.3660    0.0000 C   0  0  2  0  0  0  0  0  0  0  0  0
   -5.6962   -1.8660    0.0000 C   0  0  0  0  0  0  0  0  0  0  0  0
   -5.6962   -0.8660    0.0000 O   0  0  0  0  0  0  0  0  0  0  0  0
   -6.5622   -2.3660    0.0000 C   0  0  0  0  0  0  0  0  0  0  0  0
   -6.5622   -3.3660    0.0000 C   0  0  0  0  0  0  0  0  0  0  0  0
   -7.4282   -3.8660    0.0000 C   0  0  0  0  0  0  0  0  0  0  0  0
   -8.2942   -3.3660    0.0000 C   0  0  0  0  0  0  0  0  0  0  0  0
   -8.2942   -2.3660    0.0000 C   0  0  0  0  0  0  0  0  0  0  0  0
   -7.4282   -1.8660    0.0000 C   0  0  0  0  0  0  0  0  0  0  0  0
   -7.4282   -0.8660    0.0000 O   0  5  0  0  0  0  0  0  0  0  0  0
   -4.8301   -3.3660    0.0000 C   0  0  0  0  0  0  0  0  0  0  0  0
   -5.6962   -3.8660    0.0000 O   0  0  0  0  0  0  0  0  0  0  0  0
   -3.9641   -3.8660    0.0000 C   0  0  1  0  0  0  0  0  0  0  0  0
   -3.0981   -3.3660    0.0000 O   0  0  0  0  0  0  0  0  0  0  0  0
   -3.9641   -4.8660    0.0000 C   0  0  0  0  0  0  0  0  0  0  0  0
   -4.8301   -5.3660    0.0000 O   0  0  0  0  0  0  0  0  0  0  0  0
   -3.0981   -5.3660    0.0000 C   0  0  0  0  0  0  0  0  0  0  0  0
   -2.2321   -4.8660    0.0000 C   0  0  0  0  0  0  0  0  0  0  0  0
   -1.3660   -5.3660    0.0000 C   0  0  0  0  0  0  0  0  0  0  0  0
   -2.2321   -3.8660    0.0000 O   0  0  0  0  0  0  0  0  0  0  0  0
   -1.7321   -0.0000    0.0000 C   0  0  2  0  0  0  0  0  0  0  0  0
   -2.5981    0.5000    0.0000 O   0  0  0  0  0  0  0  0  0  0  0  0
   -1.2321    0.8660    0.0000 O   0  0  0  0  0  0  0  0  0  0  0  0
   -1.7321    1.7321    0.0000 C   0  0  0  0  0  0  0  0  0  0  0  0
   -0.8660   -0.5000    0.0000 C   0  0  0  0  0  0  0  0  0  0  0  0
   -0.8660   -1.5000    0.0000 C   0  0  0  0  0  0  0  0  0  0  0  0
   -0.0000   -2.0000    0.0000 C   0  0  0  0  0  0  0  0  0  0  0  0
    0.8660   -1.5000    0.0000 C   0  0  0  0  0  0  0  0  0  0  0  0
    0.8660   -0.5000    0.0000 C   0  0  0  0  0  0  0  0  0  0  0  0
   -0.0000   -0.0000    0.0000 C   0  0  0  0  0  0  0  0  0  0  0  0
  1  2  1  0  0  0  0
  2  3  1  0  0  0  0
  3  4  1  6  0  0  0
  3  5  1  0  0  0  0
  3 28  1  0  0  0  0
  5  6  1  0  0  0  0
  6  7  1  0  0  0  0
  8  7  1  1  0  0  0
  8  9  1  0  0  0  0
  8 18  1  0  0  0  0
  9 10  2  0  0  0  0
  9 11  1  0  0  0  0
 11 16  2  0  0  0  0
 11 12  1  0  0  0  0
 12 13  2  0  0  0  0
 13 14  1  0  0  0  0
 14 15  2  0  0  0  0
 15 16  1  0  0  0  0
 16 17  1  0  0  0  0
 18 19  2  0  0  0  0
 18 20  1  0  0  0  0
 20 21  1  1  0  0  0
 20 22  1  0  0  0  0
 22 23  2  0  0  0  0
 22 24  1  0  0  0  0
 24 25  1  0  0  0  0
 25 26  1  0  0  0  0
 25 27  2  0  0  0  0
 28 29  1  1  0  0  0
 28 30  1  0  0  0  0
 28 32  1  0  0  0  0
 30 31  1  0  0  0  0
 32 37  2  0  0  0  0
 32 33  1  0  0  0  0
 33 34  2  0  0  0  0
 34 35  1  0  0  0  0
 35 36  2  0  0  0  0
 36 37  1  0  0  0  0
M  CHG  1  17  -1
M  END
$$$$
