
 OpenBabel03202621352D

 35 37  0  0  1  0  0  0  0  0999 V2000
   -3.5491    1.8090    0.0000 C   0  0  0  0  0  0  0  0  0  0  0  0
   -2.6831    1.3090    0.0000 C   0  0  0  0  0  0  0  0  0  0  0  0
   -2.4030    0.4258   -0.9229 C   0  0  0  0  0  0  0  0  0  0  0  0
   -1.8171   -0.1910    0.0000 C   0  0  0  0  0  0  0  0  0  0  0  0
   -1.8171   -1.1910    0.0000 C   0  0  0  0  0  0  0  0  0  0  0  0
   -0.5518    0.6357    0.2280 C   0  0  0  0  0  0  0  0  0  0  0  0
   -0.6820    1.8323    0.8688 C   0  0  0  0  0  0  0  0  0  0  0  0
   -1.9519    1.9216    1.1327 C   0  0  0  0  0  0  0  0  0  0  0  0
   -0.0502    3.0074    0.1910 C   0  0  0  0  0  0  0  0  0  0  0  0
    0.9695    2.2168   -0.5536 C   0  0  2  0  0  0  0  0  0  0  0  0
    2.1751    2.1256    0.3698 C   0  0  0  0  0  0  0  0  0  0  0  0
    2.5262    0.7539    0.4356 N   0  0  0  0  0  0  0  0  0  0  0  0
    3.0729    0.0704   -0.6001 C   0  0  0  0  0  0  0  0  0  0  0  0
    3.2902   -1.1397    0.0000 C   0  0  0  0  0  0  0  0  0  0  0  0
    4.2038   -1.5464    0.0000 C   0  0  0  0  0  0  0  0  0  0  0  0
    2.3998   -1.2645    1.0490 N   0  0  0  0  0  0  0  0  0  0  0  0
    2.0532   -0.0454    1.4027 N   0  0  0  0  0  0  0  0  0  0  0  0
    0.3250    0.9222   -0.8846 O   0  0  0  0  0  0  0  0  0  0  0  0
   -3.5388    2.2982   -1.0097 H   0  0  0  0  0  0  0  0  0  0  0  0
   -4.2978    0.9823    0.1179 H   0  0  0  0  0  0  0  0  0  0  0  0
   -4.4757    2.3440    0.0000 H   0  0  0  0  0  0  0  0  0  0  0  0
   -3.0684    0.0619   -1.6918 H   0  0  0  0  0  0  0  0  0  0  0  0
   -2.6304   -1.3598    0.7517 H   0  0  0  0  0  0  0  0  0  0  0  0
   -0.8713   -1.4407    0.5448 H   0  0  0  0  0  0  0  0  0  0  0  0
   -1.8171   -2.2610    0.0000 H   0  0  0  0  0  0  0  0  0  0  0  0
   -2.3751    2.7535    1.7003 H   0  0  0  0  0  0  0  0  0  0  0  0
   -0.7417    3.4730   -0.5258 H   0  0  0  0  0  0  0  0  0  0  0  0
    0.3228    3.7776    0.8709 H   0  0  0  0  0  0  0  0  0  0  0  0
    1.2550    2.6959   -1.4982 H   0  0  0  0  0  0  0  0  0  0  0  0
    3.0206    2.7007   -0.0179 H   0  0  0  0  0  0  0  0  0  0  0  0
    2.0096    2.4801    1.3911 H   0  0  0  0  0  0  0  0  0  0  0  0
    3.5489    0.5873   -1.4260 H   0  0  0  0  0  0  0  0  0  0  0  0
    3.9177   -2.6216   -0.0795 H   0  0  0  0  0  0  0  0  0  0  0  0
    4.5554   -1.3130    1.0376 H   0  0  0  0  0  0  0  0  0  0  0  0
    5.1813   -1.9816    0.0000 H   0  0  0  0  0  0  0  0  0  0  0  0
  1  2  1  0  0  0  0
  1 19  1  0  0  0  0
  1 20  1  0  0  0  0
  1 21  1  0  0  0  0
  2  8  2  0  0  0  0
  2  3  1  0  0  0  0
  3  4  2  0  0  0  0
  3 22  1  0  0  0  0
  4  5  1  0  0  0  0
  4  6  1  0  0  0  0
  5 23  1  0  0  0  0
  5 24  1  0  0  0  0
  5 25  1  0  0  0  0
  6 18  1  0  0  0  0
  6  7  2  0  0  0  0
  7  8  1  0  0  0  0
  7  9  1  0  0  0  0
  8 26  1  0  0  0  0
  9 10  1  0  0  0  0
  9 27  1  0  0  0  0
  9 28  1  0  0  0  0
 10 11  1  0  0  0  0
 10 18  1  0  0  0  0
 10 29  1  1  0  0  0
 11 12  1  0  0  0  0
 11 30  1  0  0  0  0
 11 31  1  0  0  0  0
 12 17  1  0  0  0  0
 12 13  1  0  0  0  0
 13 14  2  0  0  0  0
 13 32  1  0  0  0  0
 14 15  1  0  0  0  0
 14 16  1  0  0  0  0
 15 33  1  0  0  0  0
 15 34  1  0  0  0  0
 15 35  1  0  0  0  0
 16 17  2  0  0  0  0
M  END
$$$$
