
 OpenBabel03202621312D

 18 18  0  0  0  0  0  0  0  0999 V2000
    2.5032   -0.9479    0.0000 C   0  0  0  0  0  0  0  0  0  0  0  0
    1.7601   -0.2788    0.0000 C   0  0  0  0  0  0  0  0  0  0  0  0
    0.3367   -0.5981   -0.0000 C   0  0  0  0  0  0  0  0  0  0  0  0
   -0.3131   -1.8198   -0.0000 C   0  0  0  0  0  0  0  0  0  0  0  0
   -1.6593   -1.7382   -0.0000 N   0  0  0  0  0  0  0  0  0  0  0  0
   -2.0510   -0.4816    0.0000 C   0  0  0  0  0  0  0  0  0  0  0  0
   -3.7435    0.0030    0.0000 S   0  0  0  0  0  0  0  0  0  0  0  0
   -4.4641   -1.5840   -0.0000 C   0  0  0  0  0  0  0  0  0  0  0  0
   -0.8551    0.6773   -0.0000 S   0  0  0  0  0  0  0  0  0  0  0  0
    2.0925   -1.9644    0.0000 H   0  0  0  0  0  0  0  0  0  0  0  0
    3.5160   -0.4728    0.0000 H   0  0  0  0  0  0  0  0  0  0  0  0
    3.2984   -1.6639    0.0000 H   0  0  0  0  0  0  0  0  0  0  0  0
    2.4037    0.6410   -0.0000 H   0  0  0  0  0  0  0  0  0  0  0  0
    1.3949    0.7622    0.0000 H   0  0  0  0  0  0  0  0  0  0  0  0
    0.1617   -2.7988   -0.0000 H   0  0  0  0  0  0  0  0  0  0  0  0
   -5.4349   -1.0803    0.0000 H   0  0  0  0  0  0  0  0  0  0  0  0
   -3.7687   -2.3933    0.0000 H   0  0  0  0  0  0  0  0  0  0  0  0
   -5.2714   -2.3432    0.0000 H   0  0  0  0  0  0  0  0  0  0  0  0
  1  2  1  0  0  0  0
  1 10  1  0  0  0  0
  1 11  1  0  0  0  0
  1 12  1  0  0  0  0
  2  3  1  0  0  0  0
  2 13  1  0  0  0  0
  2 14  1  0  0  0  0
  3  9  1  0  0  0  0
  3  4  2  0  0  0  0
  4  5  1  0  0  0  0
  4 15  1  0  0  0  0
  5  6  2  0  0  0  0
  6  7  1  0  0  0  0
  6  9  1  0  0  0  0
  7  8  1  0  0  0  0
  8 16  1  0  0  0  0
  8 17  1  0  0  0  0
  8 18  1  0  0  0  0
M  END
$$$$
