
 OpenBabel03202621382D

 28 29  0  0  1  0  0  0  0  0999 V2000
    3.7565    1.1956    1.1174 O   0  0  0  0  0  0  0  0  0  0  0  0
    4.5233    0.4611    0.5017 C   0  0  0  0  0  0  0  0  0  0  0  0
    5.7892    0.9590   -0.1361 C   0  0  0  0  0  0  0  0  0  0  0  0
    6.8585   -0.0944    0.0772 C   0  0  0  0  0  0  0  0  0  0  0  0
    6.4891   -1.3859   -0.4232 O   0  0  0  0  0  0  0  0  0  0  0  0
    5.2006   -1.7650   -0.1494 C   0  0  0  0  0  0  0  0  0  0  0  0
    4.2135   -0.9758    0.2918 C   0  0  0  0  0  0  0  0  0  0  0  0
    2.9051   -1.4490    0.5174 O   0  0  0  0  0  0  0  0  0  0  0  0
    1.8925   -1.1242   -0.3544 C   0  0  0  0  0  0  0  0  0  0  0  0
    2.1521   -0.6228   -1.9268 S   0  0  0  0  0  0  0  0  0  0  0  0
    0.6766   -1.3792    0.2314 N   0  0  0  0  0  0  0  0  0  0  0  0
   -0.6170   -0.9501   -0.2932 C   0  0  1  0  0  0  0  0  0  0  0  0
   -1.7600   -1.7936    0.2268 C   0  0  0  0  0  0  0  0  0  0  0  0
   -2.9279   -0.8506    0.0790 C   0  0  0  0  0  0  0  0  0  0  0  0
   -2.4054    0.4440    0.3733 O   0  0  0  0  0  0  0  0  0  0  0  0
   -1.0485    0.4321    0.1813 C   0  0  0  0  0  0  0  0  0  0  0  0
   -0.3308    1.4030    0.3591 O   0  0  0  0  0  0  0  0  0  0  0  0
    5.5900    1.1227   -1.2006 H   0  0  0  0  0  0  0  0  0  0  0  0
    6.0885    1.9053    0.3242 H   0  0  0  0  0  0  0  0  0  0  0  0
    7.1046   -0.1967    1.1414 H   0  0  0  0  0  0  0  0  0  0  0  0
    7.7759    0.2036   -0.4418 H   0  0  0  0  0  0  0  0  0  0  0  0
    5.0551   -2.8122   -0.3828 H   0  0  0  0  0  0  0  0  0  0  0  0
    0.7453   -1.5381    1.2305 H   0  0  0  0  0  0  0  0  0  0  0  0
   -0.6172   -0.9459   -1.3878 H   0  0  0  0  0  0  0  0  0  0  0  0
   -1.8963   -2.7312   -0.3197 H   0  0  0  0  0  0  0  0  0  0  0  0
   -1.6125   -2.0392    1.2862 H   0  0  0  0  0  0  0  0  0  0  0  0
   -3.3307   -0.8423   -0.9391 H   0  0  0  0  0  0  0  0  0  0  0  0
   -3.7349   -1.0875    0.7783 H   0  0  0  0  0  0  0  0  0  0  0  0
  1  2  2  0  0  0  0
  2  7  1  0  0  0  0
  2  3  1  0  0  0  0
  3  4  1  0  0  0  0
  3 18  1  0  0  0  0
  3 19  1  0  0  0  0
  4  5  1  0  0  0  0
  4 20  1  0  0  0  0
  4 21  1  0  0  0  0
  5  6  1  0  0  0  0
  6  7  2  0  0  0  0
  6 22  1  0  0  0  0
  7  8  1  0  0  0  0
  8  9  1  0  0  0  0
  9 10  2  0  0  0  0
  9 11  1  0  0  0  0
 11 23  1  0  0  0  0
 12 11  1  0  0  0  0
 12 13  1  0  0  0  0
 12 16  1  0  0  0  0
 12 24  1  6  0  0  0
 13 14  1  0  0  0  0
 13 25  1  0  0  0  0
 13 26  1  0  0  0  0
 14 15  1  0  0  0  0
 14 27  1  0  0  0  0
 14 28  1  0  0  0  0
 15 16  1  0  0  0  0
 16 17  2  0  0  0  0
M  END
$$$$
