
 OpenBabel03202621302D

 15 15  0  0  0  0  0  0  0  0999 V2000
    4.2840   -0.9908    0.2944 N   0  5  0  0  0  0  0  0  0  0  0  0
    3.3697   -0.4590   -0.1341 N   0  3  0  0  0  0  0  0  0  0  0  0
    2.3770    0.1125   -0.6137 N   0  0  0  0  0  0  0  0  0  0  0  0
    1.1596   -0.3953   -0.2172 C   0  0  0  0  0  0  0  0  0  0  0  0
    0.9038   -1.6289    0.2556 C   0  0  0  0  0  0  0  0  0  0  0  0
   -0.3182   -2.1611    0.5815 O   0  0  0  0  0  0  0  0  0  0  0  0
   -1.4106   -1.4934   -0.0530 C   0  0  0  0  0  0  0  0  0  0  0  0
   -1.3595   -0.0014    0.1741 C   0  0  0  0  0  0  0  0  0  0  0  0
   -0.0331    0.5201   -0.3098 C   0  0  0  0  0  0  0  0  0  0  0  0
    0.0812    1.6844   -0.6942 O   0  0  0  0  0  0  0  0  0  0  0  0
    1.6662   -2.3754    0.4479 H   0  0  0  0  0  0  0  0  0  0  0  0
   -1.3993   -1.7385   -1.1231 H   0  0  0  0  0  0  0  0  0  0  0  0
   -2.3360   -1.9042    0.3643 H   0  0  0  0  0  0  0  0  0  0  0  0
   -2.1648    0.4860   -0.3843 H   0  0  0  0  0  0  0  0  0  0  0  0
   -1.4533    0.2442    1.2369 H   0  0  0  0  0  0  0  0  0  0  0  0
  1  2  2  0  0  0  0
  2  3  2  0  0  0  0
  3  4  1  0  0  0  0
  4  9  1  0  0  0  0
  4  5  2  0  0  0  0
  5  6  1  0  0  0  0
  5 11  1  0  0  0  0
  6  7  1  0  0  0  0
  7  8  1  0  0  0  0
  7 12  1  0  0  0  0
  7 13  1  0  0  0  0
  8  9  1  0  0  0  0
  8 14  1  0  0  0  0
  8 15  1  0  0  0  0
  9 10  2  0  0  0  0
M  CHG  2   1  -1   2   1
M  END
$$$$
