
 OpenBabel03202621302D

 19 19  0  0  0  0  0  0  0  0999 V2000
    3.4641    1.0000    0.0000 C   0  0  0  0  0  0  0  0  0  0  0  0
    2.5981    1.5000    0.0000 S   0  0  0  0  0  0  0  0  0  0  0  0
    0.9222    1.2602   -0.0000 C   0  0  0  0  0  0  0  0  0  0  0  0
    0.1368    2.1725   -0.0000 O   0  0  0  0  0  0  0  0  0  0  0  0
    0.7472   -0.0742    0.0000 N   0  0  0  0  0  0  0  0  0  0  0  0
   -0.3377   -0.9163    0.0000 C   0  0  0  0  0  0  0  0  0  0  0  0
    0.0727   -2.2506    0.0000 C   0  0  0  0  0  0  0  0  0  0  0  0
   -0.8605   -3.2503    0.0000 C   0  0  0  0  0  0  0  0  0  0  0  0
   -0.4522   -4.5239   -0.0000 F   0  0  0  0  0  0  0  0  0  0  0  0
   -2.1910   -2.8815   -0.0000 C   0  0  0  0  0  0  0  0  0  0  0  0
   -3.4309   -4.0592   -0.0000 Cl  0  0  0  0  0  0  0  0  0  0  0  0
   -2.6396   -1.6049   -0.0000 N   0  0  0  0  0  0  0  0  0  0  0  0
   -1.7035   -0.6282    0.0000 C   0  0  0  0  0  0  0  0  0  0  0  0
   -2.4171    0.9242    0.0000 Cl  0  0  0  0  0  0  0  0  0  0  0  0
    3.2940   -0.0753   -0.0000 H   0  0  0  0  0  0  0  0  0  0  0  0
    4.2549    1.7557   -0.0000 H   0  0  0  0  0  0  0  0  0  0  0  0
    4.3907    0.4650    0.0000 H   0  0  0  0  0  0  0  0  0  0  0  0
    1.6283   -0.5468    0.0000 H   0  0  0  0  0  0  0  0  0  0  0  0
    1.1283   -2.5272    0.0000 H   0  0  0  0  0  0  0  0  0  0  0  0
  1  2  1  0  0  0  0
  1 15  1  0  0  0  0
  1 16  1  0  0  0  0
  1 17  1  0  0  0  0
  2  3  1  0  0  0  0
  3  4  2  0  0  0  0
  3  5  1  0  0  0  0
  5  6  1  0  0  0  0
  5 18  1  0  0  0  0
  6 13  2  0  0  0  0
  6  7  1  0  0  0  0
  7  8  2  0  0  0  0
  7 19  1  0  0  0  0
  8  9  1  0  0  0  0
  8 10  1  0  0  0  0
 10 11  1  0  0  0  0
 10 12  2  0  0  0  0
 12 13  1  0  0  0  0
 13 14  1  0  0  0  0
M  END
$$$$
