
 OpenBabel03202621312D

 25 24  0  0  0  0  0  0  0  0999 V2000
   -0.8660   -2.5000    0.0000 C   0  0  0  0  0  0  0  0  0  0  0  0
    0.0000   -3.0000    0.0000 C   0  0  0  0  0  0  0  0  0  0  0  0
    0.7714   -2.6836   -1.2536 C   0  0  0  0  0  0  0  0  0  0  0  0
    2.0297   -2.9340   -1.2758 N   0  0  0  0  0  0  0  0  0  0  0  0
    2.5981   -2.5000    0.0000 N   0  0  0  0  0  0  0  0  0  0  0  0
    3.4641   -3.0000    0.0000 C   0  0  0  0  0  0  0  0  0  0  0  0
    2.5981   -1.5000    0.0000 C   0  0  0  0  0  0  0  0  0  0  0  0
    0.3523   -1.3333   -1.7013 C   0  0  0  0  0  0  0  0  0  0  0  0
    0.4795   -0.6494   -2.6889 O   0  0  0  0  0  0  0  0  0  0  0  0
    0.0000   -1.0000    0.0000 S   0  0  0  0  0  0  0  0  0  0  0  0
    0.0000    0.0000    0.0000 C   0  0  0  0  0  0  0  0  0  0  0  0
   -1.4292   -3.0419   -0.8360 H   0  0  0  0  0  0  0  0  0  0  0  0
   -1.3394   -2.9711    0.9231 H   0  0  0  0  0  0  0  0  0  0  0  0
   -1.7926   -1.9650    0.0000 H   0  0  0  0  0  0  0  0  0  0  0  0
   -0.0824   -4.1098   -0.1359 H   0  0  0  0  0  0  0  0  0  0  0  0
    0.6179   -3.0993    0.9258 H   0  0  0  0  0  0  0  0  0  0  0  0
    3.1837   -4.0817   -0.1301 H   0  0  0  0  0  0  0  0  0  0  0  0
    4.1601   -2.6073   -0.8109 H   0  0  0  0  0  0  0  0  0  0  0  0
    4.3907   -3.5350    0.0000 H   0  0  0  0  0  0  0  0  0  0  0  0
    3.3214   -1.0957   -0.7767 H   0  0  0  0  0  0  0  0  0  0  0  0
    2.8425   -1.2544    1.0687 H   0  0  0  0  0  0  0  0  0  0  0  0
    2.5981   -0.4300    0.0000 H   0  0  0  0  0  0  0  0  0  0  0  0
    0.6579    0.1829    0.8718 H   0  0  0  0  0  0  0  0  0  0  0  0
   -1.0354    0.1885    0.3500 H   0  0  0  0  0  0  0  0  0  0  0  0
    0.0000    1.0700    0.0000 H   0  0  0  0  0  0  0  0  0  0  0  0
  1  2  1  0  0  0  0
  1 12  1  0  0  0  0
  1 13  1  0  0  0  0
  1 14  1  0  0  0  0
  2  3  1  0  0  0  0
  2 15  1  0  0  0  0
  2 16  1  0  0  0  0
  3  4  2  3  0  0  0
  3  8  1  0  0  0  0
  4  5  1  0  0  0  0
  5  6  1  0  0  0  0
  5  7  1  0  0  0  0
  6 17  1  0  0  0  0
  6 18  1  0  0  0  0
  6 19  1  0  0  0  0
  7 20  1  0  0  0  0
  7 21  1  0  0  0  0
  7 22  1  0  0  0  0
  8  9  2  0  0  0  0
  8 10  1  0  0  0  0
 10 11  1  0  0  0  0
 11 23  1  0  0  0  0
 11 24  1  0  0  0  0
 11 25  1  0  0  0  0
M  END
$$$$
