
 OpenBabel03202621322D

 27 27  0  0  1  0  0  0  0  0999 V2000
    4.5714    0.4954    0.0000 C   0  0  0  0  0  0  0  0  0  0  0  0
    4.1646    1.4090    0.0000 O   0  0  0  0  0  0  0  0  0  0  0  0
    3.3189    1.4895    0.9730 C   0  0  0  0  0  0  0  0  0  0  0  0
    3.1787    2.2793    1.8643 O   0  0  0  0  0  0  0  0  0  0  0  0
    2.5823    0.7045    0.0000 C   0  0  1  0  0  0  0  0  0  0  0  0
    2.4778   -0.2900    0.0000 C   0  0  0  0  0  0  0  0  0  0  0  0
    2.4771    1.2437   -1.4205 O   0  0  0  0  0  0  0  0  0  0  0  0
    1.1466    1.4359    0.4541 C   0  0  0  0  0  0  0  0  0  0  0  0
    0.0099    0.5492    0.2625 N   0  0  0  0  0  0  0  0  0  0  0  0
    0.0428   -0.6303    0.9716 C   0  0  0  0  0  0  0  0  0  0  0  0
    0.5000   -1.5388    0.0000 C   0  0  0  0  0  0  0  0  0  0  0  0
    0.5000   -2.5388    0.0000 C   0  0  0  0  0  0  0  0  0  0  0  0
    0.1765   -0.9386   -1.2301 N   0  0  0  0  0  0  0  0  0  0  0  0
   -0.3071    0.2727   -1.0121 N   0  0  0  0  0  0  0  0  0  0  0  0
    5.4307    0.6561    0.7006 H   0  0  0  0  0  0  0  0  0  0  0  0
    5.0567    0.5073   -1.0046 H   0  0  0  0  0  0  0  0  0  0  0  0
    5.0066   -0.4821    0.0000 H   0  0  0  0  0  0  0  0  0  0  0  0
    3.0203   -0.6552   -0.9114 H   0  0  0  0  0  0  0  0  0  0  0  0
    2.8738   -0.6089    1.0017 H   0  0  0  0  0  0  0  0  0  0  0  0
    2.3660   -1.3541    0.0000 H   0  0  0  0  0  0  0  0  0  0  0  0
    3.3740    1.4231   -1.7483 H   0  0  0  0  0  0  0  0  0  0  0  0
    0.9460    2.3424   -0.1377 H   0  0  0  0  0  0  0  0  0  0  0  0
    1.0679    1.7107    1.5141 H   0  0  0  0  0  0  0  0  0  0  0  0
   -0.0513   -0.6790    2.0475 H   0  0  0  0  0  0  0  0  0  0  0  0
   -0.5735   -2.7484    0.2394 H   0  0  0  0  0  0  0  0  0  0  0  0
    1.1239   -2.7438    0.9038 H   0  0  0  0  0  0  0  0  0  0  0  0
    0.5000   -3.6088    0.0000 H   0  0  0  0  0  0  0  0  0  0  0  0
  1  2  1  0  0  0  0
  1 15  1  0  0  0  0
  1 16  1  0  0  0  0
  1 17  1  0  0  0  0
  2  3  1  0  0  0  0
  3  4  2  0  0  0  0
  5  3  1  6  0  0  0
  5  6  1  0  0  0  0
  5  7  1  0  0  0  0
  5  8  1  0  0  0  0
  6 18  1  0  0  0  0
  6 19  1  0  0  0  0
  6 20  1  0  0  0  0
  7 21  1  0  0  0  0
  8  9  1  0  0  0  0
  8 22  1  0  0  0  0
  8 23  1  0  0  0  0
  9 14  1  0  0  0  0
  9 10  1  0  0  0  0
 10 11  2  0  0  0  0
 10 24  1  0  0  0  0
 11 12  1  0  0  0  0
 11 13  1  0  0  0  0
 12 25  1  0  0  0  0
 12 26  1  0  0  0  0
 12 27  1  0  0  0  0
 13 14  2  0  0  0  0
M  END
$$$$
