
 OpenBabel03202621362D

 34 36  0  0  1  0  0  0  0  0999 V2000
   -0.3037   -3.6983    1.0191 O   0  0  0  0  0  0  0  0  0  0  0  0
    0.5077   -2.8843    0.5943 C   0  0  0  0  0  0  0  0  0  0  0  0
    1.8032   -3.2554    0.2524 N   0  0  0  0  0  0  0  0  0  0  0  0
    2.6059   -2.3930   -0.5643 C   0  0  1  0  0  0  0  0  0  0  0  0
    3.4711   -1.3686    0.1108 C   0  0  0  0  0  0  0  0  0  0  0  0
    4.0834   -2.3920   -0.8131 C   0  0  2  0  0  0  0  0  0  0  0  0
    5.1614   -3.2854   -0.2641 C   0  0  0  0  0  0  0  0  0  0  0  0
    6.4367   -2.7283   -0.0367 C   0  0  0  0  0  0  0  0  0  0  0  0
    7.5383   -3.5118    0.3084 C   0  0  0  0  0  0  0  0  0  0  0  0
    7.3850   -4.8844    0.4533 C   0  0  0  0  0  0  0  0  0  0  0  0
    6.1293   -5.4613    0.2678 C   0  0  0  0  0  0  0  0  0  0  0  0
    5.0303   -4.6689   -0.0911 C   0  0  0  0  0  0  0  0  0  0  0  0
    0.3058   -1.5648    0.3515 O   0  0  0  0  0  0  0  0  0  0  0  0
   -0.8890   -0.7995    0.2968 C   0  0  0  0  0  0  0  0  0  0  0  0
   -2.1216   -1.3344    0.2634 C   0  0  0  0  0  0  0  0  0  0  0  0
   -3.3008   -0.6453    0.1327 O   0  0  0  0  0  0  0  0  0  0  0  0
   -3.2013    0.7848    0.0297 C   0  0  0  0  0  0  0  0  0  0  0  0
   -1.8297    1.3752    0.0475 C   0  0  0  0  0  0  0  0  0  0  0  0
   -0.7030    0.6552    0.1682 C   0  0  0  0  0  0  0  0  0  0  0  0
    0.4941    1.0479    0.1855 O   0  5  0  0  0  0  0  0  0  0  0  0
    1.9957   -4.2403    0.3173 H   0  0  0  0  0  0  0  0  0  0  0  0
    2.0254   -2.0266   -1.4137 H   0  0  0  0  0  0  0  0  0  0  0  0
    3.6029   -1.4575    1.1832 H   0  0  0  0  0  0  0  0  0  0  0  0
    3.3562   -0.3431   -0.2251 H   0  0  0  0  0  0  0  0  0  0  0  0
    4.3334   -2.0186   -1.8082 H   0  0  0  0  0  0  0  0  0  0  0  0
    6.5722   -1.6555   -0.1699 H   0  0  0  0  0  0  0  0  0  0  0  0
    8.5106   -3.0463    0.4424 H   0  0  0  0  0  0  0  0  0  0  0  0
    8.2423   -5.5031    0.7016 H   0  0  0  0  0  0  0  0  0  0  0  0
    6.0079   -6.5349    0.3806 H   0  0  0  0  0  0  0  0  0  0  0  0
    4.0724   -5.1483   -0.2680 H   0  0  0  0  0  0  0  0  0  0  0  0
   -2.3160   -2.3950    0.3159 H   0  0  0  0  0  0  0  0  0  0  0  0
   -3.7830    1.2100    0.8546 H   0  0  0  0  0  0  0  0  0  0  0  0
   -3.6986    1.0778   -0.9022 H   0  0  0  0  0  0  0  0  0  0  0  0
   -1.7469    2.4523   -0.0471 H   0  0  0  0  0  0  0  0  0  0  0  0
  1  2  2  0  0  0  0
  2  3  1  0  0  0  0
  2 13  1  0  0  0  0
  3 21  1  0  0  0  0
  4  3  1  0  0  0  0
  4  5  1  0  0  0  0
  4  6  1  0  0  0  0
  4 22  1  6  0  0  0
  5  6  1  0  0  0  0
  5 23  1  0  0  0  0
  5 24  1  0  0  0  0
  6  7  1  0  0  0  0
  6 25  1  1  0  0  0
  7 12  2  0  0  0  0
  7  8  1  0  0  0  0
  8  9  2  0  0  0  0
  8 26  1  0  0  0  0
  9 10  1  0  0  0  0
  9 27  1  0  0  0  0
 10 11  2  0  0  0  0
 10 28  1  0  0  0  0
 11 12  1  0  0  0  0
 11 29  1  0  0  0  0
 12 30  1  0  0  0  0
 13 14  1  0  0  0  0
 14 19  1  0  0  0  0
 14 15  2  0  0  0  0
 15 16  1  0  0  0  0
 15 31  1  0  0  0  0
 16 17  1  0  0  0  0
 17 18  1  0  0  0  0
 17 32  1  0  0  0  0
 17 33  1  0  0  0  0
 18 19  2  0  0  0  0
 18 34  1  0  0  0  0
 19 20  1  0  0  0  0
M  CHG  1  20  -1
M  END
$$$$
