
 OpenBabel03202621402D

 23 24  0  0  0  0  0  0  0  0999 V2000
    3.5796    3.0159    0.0000 O   0  0  0  0  0  0  0  0  0  0  0  0
    2.4722    3.5353    0.0000 C   0  0  0  0  0  0  0  0  0  0  0  0
    0.9450    2.6999   -0.0000 S   0  0  0  0  0  0  0  0  0  0  0  0
    1.2349    0.9453   -0.0000 C   0  0  0  0  0  0  0  0  0  0  0  0
    2.4577    0.2801    0.0000 C   0  0  0  0  0  0  0  0  0  0  0  0
    2.5094   -1.1159    0.0000 C   0  0  0  0  0  0  0  0  0  0  0  0
    1.3335   -1.8681    0.0000 C   0  0  0  0  0  0  0  0  0  0  0  0
    0.0764   -1.2448    0.0000 C   0  0  0  0  0  0  0  0  0  0  0  0
   -1.2084   -1.9828    0.0000 C   0  0  0  0  0  0  0  0  0  0  0  0
   -1.3099   -3.3600    0.0000 C   0  0  0  0  0  0  0  0  0  0  0  0
   -2.5825   -3.8805    0.0000 C   0  0  0  0  0  0  0  0  0  0  0  0
   -3.7030   -3.1387   -0.0000 N   0  0  0  0  0  0  0  0  0  0  0  0
   -3.5079   -1.8176   -0.0000 C   0  0  0  0  0  0  0  0  0  0  0  0
   -2.3167   -1.2041    0.0000 N   0  0  0  0  0  0  0  0  0  0  0  0
    0.0687    0.1657    0.0000 C   0  0  0  0  0  0  0  0  0  0  0  0
    2.3666    4.6311   -0.0000 H   0  0  0  0  0  0  0  0  0  0  0  0
    3.4033    0.8089   -0.0000 H   0  0  0  0  0  0  0  0  0  0  0  0
    3.4744   -1.6186   -0.0000 H   0  0  0  0  0  0  0  0  0  0  0  0
    1.4336   -2.9495    0.0000 H   0  0  0  0  0  0  0  0  0  0  0  0
   -0.4541   -4.0170    0.0000 H   0  0  0  0  0  0  0  0  0  0  0  0
   -2.7433   -4.9558   -0.0000 H   0  0  0  0  0  0  0  0  0  0  0  0
   -4.3852   -1.1815   -0.0000 H   0  0  0  0  0  0  0  0  0  0  0  0
   -0.8951    0.6781   -0.0000 H   0  0  0  0  0  0  0  0  0  0  0  0
  1  2  2  0  0  0  0
  2  3  1  0  0  0  0
  2 16  1  0  0  0  0
  3  4  1  0  0  0  0
  4 15  2  0  0  0  0
  4  5  1  0  0  0  0
  5  6  2  0  0  0  0
  5 17  1  0  0  0  0
  6  7  1  0  0  0  0
  6 18  1  0  0  0  0
  7  8  2  0  0  0  0
  7 19  1  0  0  0  0
  8  9  1  0  0  0  0
  8 15  1  0  0  0  0
  9 14  2  0  0  0  0
  9 10  1  0  0  0  0
 10 11  2  0  0  0  0
 10 20  1  0  0  0  0
 11 12  1  0  0  0  0
 11 21  1  0  0  0  0
 12 13  2  0  0  0  0
 13 14  1  0  0  0  0
 13 22  1  0  0  0  0
 15 23  1  0  0  0  0
M  END
$$$$
