
 OpenBabel03202621282D

 17 18  0  0  1  0  0  0  0  0999 V2000
    1.1603   -1.1603    0.0000 C   0  0  0  0  0  0  0  0  0  0  0  0
    0.2452   -0.9151    0.0000 C   0  0  0  0  0  0  0  0  0  0  0  0
   -0.4247   -1.5850    0.0000 C   0  0  0  0  0  0  0  0  0  0  0  0
   -1.3398   -1.3398    0.0000 C   0  0  0  0  0  0  0  0  0  0  0  0
   -1.5850   -0.4247    0.0000 C   0  0  0  0  0  0  0  0  0  0  0  0
   -3.4152    0.0657    0.0000 C   0  0  3  0  0  0  0  0  0  0  0  0
   -3.5388    1.0050    0.0000 O   0  0  0  0  0  0  0  0  0  0  0  0
   -4.2356    0.5394    0.0000 C   0  0  0  0  0  0  0  0  0  0  0  0
   -5.0560    0.0657    0.0000 C   0  0  0  0  0  0  0  0  0  0  0  0
   -5.0560   -0.8817    0.0000 O   0  0  0  0  0  0  0  0  0  0  0  0
   -4.2356   -1.3554    0.0000 C   0  0  0  0  0  0  0  0  0  0  0  0
   -3.4152   -0.8817    0.0000 C   0  0  0  0  0  0  0  0  0  0  0  0
   -2.5947   -1.3554    0.0000 O   0  5  0  0  0  0  0  0  0  0  0  0
   -0.9151    0.2452    0.0000 C   0  0  0  0  0  0  0  0  0  0  0  0
   -1.1603    1.1603    0.0000 C   0  0  0  0  0  0  0  0  0  0  0  0
   -2.0754    1.4055    0.0000 O   0  0  0  0  0  0  0  0  0  0  0  0
   -0.0000   -0.0000    0.0000 N   0  0  0  0  0  0  0  0  0  0  0  0
  1  2  1  0  0  0  0
  2 17  2  0  0  0  0
  2  3  1  0  0  0  0
  3  4  2  0  0  0  0
  4  5  1  0  0  0  0
  5  6  1  0  0  0  0
  5 14  2  0  0  0  0
  6 12  1  0  0  0  0
  6  7  1  0  0  0  0
  6  8  1  0  0  0  0
  8  9  1  0  0  0  0
  9 10  1  0  0  0  0
 10 11  1  0  0  0  0
 11 12  2  0  0  0  0
 12 13  1  0  0  0  0
 14 15  1  0  0  0  0
 14 17  1  0  0  0  0
 15 16  2  0  0  0  0
M  CHG  1  13  -1
M  END
$$$$
