
 OpenBabel03202621282D

 15 16  0  0  0  0  0  0  0  0999 V2000
   -0.2788   -1.7601    0.0000 C   0  0  0  0  0  0  0  0  0  0  0  0
   -0.5878   -0.8090    0.0000 C   0  0  0  0  0  0  0  0  0  0  0  0
   -1.5388   -0.5000    0.0000 C   0  0  0  0  0  0  0  0  0  0  0  0
   -1.5388    0.5000    0.0000 N   0  0  0  0  0  0  0  0  0  0  0  0
   -2.3479    1.0878    0.0000 C   0  0  0  0  0  0  0  0  0  0  0  0
   -2.2433    2.0823    0.0000 O   0  0  0  0  0  0  0  0  0  0  0  0
   -3.2614    0.6810    0.0000 C   0  0  0  0  0  0  0  0  0  0  0  0
   -3.3659   -0.3135    0.0000 C   0  0  0  0  0  0  0  0  0  0  0  0
   -4.2795   -0.7202    0.0000 C   0  0  0  0  0  0  0  0  0  0  0  0
   -4.4874   -1.6984    0.0000 C   0  0  0  0  0  0  0  0  0  0  0  0
   -5.4819   -1.8029    0.0000 C   0  0  0  0  0  0  0  0  0  0  0  0
   -5.8886   -0.8893    0.0000 C   0  0  0  0  0  0  0  0  0  0  0  0
   -5.1455   -0.2202    0.0000 O   0  0  0  0  0  0  0  0  0  0  0  0
   -0.5878    0.8090    0.0000 N   0  0  0  0  0  0  0  0  0  0  0  0
   -0.0000   -0.0000    0.0000 N   0  0  0  0  0  0  0  0  0  0  0  0
  1  2  1  0  0  0  0
  2 15  1  0  0  0  0
  2  3  2  0  0  0  0
  3  4  1  0  0  0  0
  4  5  1  0  0  0  0
  4 14  1  0  0  0  0
  5  6  2  0  0  0  0
  5  7  1  0  0  0  0
  7  8  2  3  0  0  0
  8  9  1  0  0  0  0
  9 13  1  0  0  0  0
  9 10  2  0  0  0  0
 10 11  1  0  0  0  0
 11 12  2  0  0  0  0
 12 13  1  0  0  0  0
 14 15  2  0  0  0  0
M  END
$$$$
