
 OpenBabel03202621372D

 15 14  0  0  1  0  0  0  0  0999 V2000
    1.7321   -2.0000    0.0000 C   0  0  0  0  0  0  0  0  0  0  0  0
    2.5981   -1.5000    0.0000 S   0  0  0  0  0  0  0  0  0  0  0  0
    2.4079    0.1777   -0.4505 C   0  0  0  0  0  0  0  0  0  0  0  0
    3.0770    0.6560   -1.3648 O   0  0  0  0  0  0  0  0  0  0  0  0
    1.4847    1.0660    0.4125 C   0  0  2  0  0  0  0  0  0  0  0  0
    1.6252    2.4487    0.0470 O   0  0  0  0  0  0  0  0  0  0  0  0
    0.0434    0.7370    0.2368 C   0  0  0  0  0  3  0  0  0  0  0  0
   -0.8437    1.7416   -0.0651 O   0  0  0  0  0  0  0  0  0  0  0  0
    1.6564   -2.2356   -1.0810 H   0  0  0  0  0  0  0  0  0  0  0  0
    2.0643   -2.9177    0.5213 H   0  0  0  0  0  0  0  0  0  0  0  0
    0.8055   -2.5350    0.0000 H   0  0  0  0  0  0  0  0  0  0  0  0
    1.7803    0.9766    1.4619 H   0  0  0  0  0  0  0  0  0  0  0  0
    2.3753    2.4853   -0.5832 H   0  0  0  0  0  0  0  0  0  0  0  0
   -0.4484   -0.1839    0.5075 H   0  0  0  0  0  0  0  0  0  0  0  0
   -0.3599    2.5890   -0.1790 H   0  0  0  0  0  0  0  0  0  0  0  0
  1  2  1  0  0  0  0
  1  9  1  0  0  0  0
  1 10  1  0  0  0  0
  1 11  1  0  0  0  0
  2  3  1  0  0  0  0
  3  4  2  0  0  0  0
  3  5  1  0  0  0  0
  5  6  1  0  0  0  0
  5  7  1  0  0  0  0
  5 12  1  6  0  0  0
  6 13  1  0  0  0  0
  7  8  1  0  0  0  0
  7 14  1  0  0  0  0
  8 15  1  0  0  0  0
M  END
$$$$
