
 OpenBabel03202621322D

 21 20  0  0  0  0  0  0  0  0999 V2000
    5.1288   -1.3567    0.0894 C   0  0  0  0  0  0  0  0  0  0  0  0
    5.1962    0.0000    0.0000 C   0  0  0  0  0  0  0  0  0  0  0  0
    6.0622    0.5000    0.0000 C   0  0  0  0  0  0  0  0  0  0  0  0
    3.8402    0.7605    0.0710 C   0  0  0  0  0  0  0  0  0  0  0  0
    2.5349   -0.0387    0.1229 C   0  0  0  0  0  0  0  0  0  0  0  0
    1.3335    0.8848    0.1775 C   0  0  0  0  0  0  0  0  0  0  0  0
    1.4206    2.1048    0.2635 O   0  0  0  0  0  0  0  0  0  0  0  0
    0.1373    0.2083    0.1506 N   0  0  0  0  0  0  0  0  0  0  0  0
   -1.0731    0.8383    0.0621 C   0  0  0  0  0  0  0  0  0  0  0  0
   -2.1234    0.2247   -0.0836 O   0  0  0  0  0  0  0  0  0  0  0  0
    4.2070   -1.9247    0.1323 H   0  0  0  0  0  0  0  0  0  0  0  0
    6.0273   -1.9765    0.1157 H   0  0  0  0  0  0  0  0  0  0  0  0
    6.6454   -0.0830   -0.7640 H   0  0  0  0  0  0  0  0  0  0  0  0
    5.7887    1.4094   -0.5887 H   0  0  0  0  0  0  0  0  0  0  0  0
    6.9888    1.0350    0.0000 H   0  0  0  0  0  0  0  0  0  0  0  0
    3.8737    1.4166    0.9545 H   0  0  0  0  0  0  0  0  0  0  0  0
    3.7652    1.4252   -0.8041 H   0  0  0  0  0  0  0  0  0  0  0  0
    2.5030   -0.6781    1.0121 H   0  0  0  0  0  0  0  0  0  0  0  0
    2.4368   -0.6635   -0.7731 H   0  0  0  0  0  0  0  0  0  0  0  0
    0.1096   -0.7950    0.0680 H   0  0  0  0  0  0  0  0  0  0  0  0
   -1.0218    1.9403    0.1192 H   0  0  0  0  0  0  0  0  0  0  0  0
  1  2  2  0  0  0  0
  1 11  1  0  0  0  0
  1 12  1  0  0  0  0
  2  3  1  0  0  0  0
  2  4  1  0  0  0  0
  3 13  1  0  0  0  0
  3 14  1  0  0  0  0
  3 15  1  0  0  0  0
  4  5  1  0  0  0  0
  4 16  1  0  0  0  0
  4 17  1  0  0  0  0
  5  6  1  0  0  0  0
  5 18  1  0  0  0  0
  5 19  1  0  0  0  0
  6  7  2  0  0  0  0
  6  8  1  0  0  0  0
  8  9  1  0  0  0  0
  8 20  1  0  0  0  0
  9 10  2  0  0  0  0
  9 21  1  0  0  0  0
M  END
$$$$
