
 OpenBabel03202621282D

 20 22  0  0  1  0  0  0  0  0999 V2000
   -1.2601    1.2601    0.0000 C   0  0  0  0  0  0  0  0  0  0  0  0
   -0.3090    0.9511    0.0000 C   0  0  0  0  0  0  0  0  0  0  0  0
    0.5000    1.5388    0.0000 C   0  0  0  0  0  0  0  0  0  0  0  0
    1.3090    0.9511    0.0000 N   0  0  0  0  0  0  0  0  0  0  0  0
    2.2601    1.2601    0.0000 C   0  0  0  0  0  0  0  0  0  0  0  0
    2.4680    2.2382    0.0000 C   0  0  1  0  0  0  0  0  0  0  0  0
    1.7989    2.9814    0.0000 C   0  0  0  0  0  0  0  0  0  0  0  0
    2.2989    3.8474    0.0000 C   0  0  0  0  0  0  0  0  0  0  0  0
    3.2770    3.6395    0.0000 C   0  0  0  0  0  0  0  0  0  0  0  0
    3.3815    2.6450    0.0000 N   0  0  0  0  0  0  0  0  0  0  0  0
    4.2476    2.1450    0.0000 C   0  0  0  0  0  0  0  0  0  0  0  0
    4.2476    1.1450    0.0000 O   0  0  0  0  0  0  0  0  0  0  0  0
    5.1136    2.6450    0.0000 C   0  0  0  0  0  0  0  0  0  0  0  0
    5.1136    3.6450    0.0000 C   0  0  0  0  0  0  0  0  0  0  0  0
    5.9796    4.1450    0.0000 C   0  0  0  0  0  0  0  0  0  0  0  0
    6.8456    3.6450    0.0000 C   0  0  0  0  0  0  0  0  0  0  0  0
    6.8456    2.6450    0.0000 C   0  0  0  0  0  0  0  0  0  0  0  0
    5.9796    2.1450    0.0000 C   0  0  0  0  0  0  0  0  0  0  0  0
    1.0000   -0.0000    0.0000 N   0  0  0  0  0  0  0  0  0  0  0  0
    0.0000   -0.0000    0.0000 N   0  0  0  0  0  0  0  0  0  0  0  0
  1  2  1  0  0  0  0
  2 20  1  0  0  0  0
  2  3  2  0  0  0  0
  3  4  1  0  0  0  0
  4  5  1  0  0  0  0
  4 19  1  0  0  0  0
  6  5  1  1  0  0  0
  6  7  1  0  0  0  0
  6 10  1  0  0  0  0
  7  8  1  0  0  0  0
  8  9  1  0  0  0  0
  9 10  1  0  0  0  0
 10 11  1  0  0  0  0
 11 12  2  0  0  0  0
 11 13  1  0  0  0  0
 13 18  2  0  0  0  0
 13 14  1  0  0  0  0
 14 15  2  0  0  0  0
 15 16  1  0  0  0  0
 16 17  2  0  0  0  0
 17 18  1  0  0  0  0
 19 20  2  0  0  0  0
M  END
$$$$
