
 OpenBabel03202621312D

 29 30  0  0  1  0  0  0  0  0999 V2000
    3.2504    4.5009    0.1855 O   0  5  0  0  0  0  0  0  0  0  0  0
    3.9637    3.4790    0.0182 C   0  0  0  0  0  0  0  0  0  0  0  0
    5.2461    3.2737    0.3670 C   0  0  0  0  0  0  0  0  0  0  0  0
    6.0006    2.0100    0.1005 C   0  0  0  0  0  0  0  0  0  0  0  0
    5.2450    0.9010   -0.4085 O   0  0  0  0  0  0  0  0  0  0  0  0
    3.9815    1.1955   -0.8458 C   0  0  0  0  0  0  0  0  0  0  0  0
    3.3189    2.3501   -0.6755 C   0  0  0  0  0  0  0  0  0  0  0  0
    2.0769    2.4991   -1.2799 O   0  0  0  0  0  0  0  0  0  0  0  0
    0.9669    2.4947   -0.3655 C   0  0  0  0  0  0  0  0  0  0  0  0
    0.6730    1.0614    0.1408 C   0  0  1  0  0  0  0  0  0  0  0  0
    1.1038    0.9109    1.4994 O   0  0  0  0  0  0  0  0  0  0  0  0
   -0.7705    0.6153    0.0807 C   0  0  0  0  0  0  0  0  0  0  0  0
   -1.8133    1.5139    0.3008 C   0  0  0  0  0  0  0  0  0  0  0  0
   -3.1336    1.2064    0.2305 N   0  0  0  0  0  0  0  0  0  0  0  0
   -3.4451   -0.0737   -0.0417 C   0  0  0  0  0  0  0  0  0  0  0  0
   -2.5027   -1.0627   -0.2345 C   0  0  0  0  0  0  0  0  0  0  0  0
   -1.1546   -0.7112   -0.1644 C   0  0  0  0  0  0  0  0  0  0  0  0
    0.0960   -2.1258   -0.4061 Br  0  0  0  0  0  0  0  0  0  0  0  0
    5.7875    4.0792    0.8519 H   0  0  0  0  0  0  0  0  0  0  0  0
    6.4736    1.6724    1.0309 H   0  0  0  0  0  0  0  0  0  0  0  0
    6.8020    2.2136   -0.6170 H   0  0  0  0  0  0  0  0  0  0  0  0
    3.5536    0.3494   -1.3628 H   0  0  0  0  0  0  0  0  0  0  0  0
    1.1026    3.1887    0.4699 H   0  0  0  0  0  0  0  0  0  0  0  0
    0.1333    2.8765   -0.9635 H   0  0  0  0  0  0  0  0  0  0  0  0
    1.2719    0.3733   -0.4598 H   0  0  0  0  0  0  0  0  0  0  0  0
    1.9652    1.3753    1.5530 H   0  0  0  0  0  0  0  0  0  0  0  0
   -1.6196    2.5554    0.5495 H   0  0  0  0  0  0  0  0  0  0  0  0
   -4.5068   -0.2931   -0.0954 H   0  0  0  0  0  0  0  0  0  0  0  0
   -2.8153   -2.0815   -0.4316 H   0  0  0  0  0  0  0  0  0  0  0  0
  1  2  1  0  0  0  0
  2  7  1  0  0  0  0
  2  3  2  0  0  0  0
  3  4  1  0  0  0  0
  3 19  1  0  0  0  0
  4  5  1  0  0  0  0
  4 20  1  0  0  0  0
  4 21  1  0  0  0  0
  5  6  1  0  0  0  0
  6  7  2  0  0  0  0
  6 22  1  0  0  0  0
  7  8  1  0  0  0  0
  8  9  1  0  0  0  0
  9 10  1  0  0  0  0
  9 23  1  0  0  0  0
  9 24  1  0  0  0  0
 10 11  1  0  0  0  0
 10 12  1  0  0  0  0
 10 25  1  6  0  0  0
 11 26  1  0  0  0  0
 12 17  2  0  0  0  0
 12 13  1  0  0  0  0
 13 14  2  0  0  0  0
 13 27  1  0  0  0  0
 14 15  1  0  0  0  0
 15 16  2  0  0  0  0
 15 28  1  0  0  0  0
 16 17  1  0  0  0  0
 16 29  1  0  0  0  0
 17 18  1  0  0  0  0
M  CHG  1   1  -1
M  END
$$$$
