
 OpenBabel03202621352D

 22 22  0  0  0  0  0  0  0  0999 V2000
   -0.8660   -3.5000    0.0000 C   0  0  0  0  0  0  0  0  0  0  0  0
    0.0000   -3.0000    0.0000 S   0  0  0  0  0  0  0  0  0  0  0  0
    1.0456   -2.9082    1.3830 C   0  0  0  0  0  0  0  0  0  0  0  0
    1.9498   -4.1735    1.9906 S   0  0  0  0  0  0  0  0  0  0  0  0
    1.2702   -1.6218    1.8514 N   0  0  0  0  0  0  0  0  0  0  0  0
    0.5796   -0.5361    1.2621 C   0  0  0  0  0  0  0  0  0  0  0  0
   -0.7486   -0.3167    1.6092 C   0  0  0  0  0  0  0  0  0  0  0  0
   -1.4864    0.6647    0.9409 C   0  0  0  0  0  0  0  0  0  0  0  0
   -0.8660    1.5000    0.0000 C   0  0  0  0  0  0  0  0  0  0  0  0
   -0.8660    2.5000    0.0000 C   0  0  0  0  0  0  0  0  0  0  0  0
    0.3477    1.0769   -0.4899 N   0  0  0  0  0  0  0  0  0  0  0  0
    1.0698    0.1529    0.1719 C   0  0  0  0  0  0  0  0  0  0  0  0
    2.6327   -0.1188   -0.4877 Cl  0  0  0  0  0  0  0  0  0  0  0  0
   -1.3192   -3.1498    0.9475 H   0  0  0  0  0  0  0  0  0  0  0  0
   -0.4993   -4.5398    0.0933 H   0  0  0  0  0  0  0  0  0  0  0  0
   -1.7926   -4.0350    0.0000 H   0  0  0  0  0  0  0  0  0  0  0  0
    2.2685   -1.4922    1.9996 H   0  0  0  0  0  0  0  0  0  0  0  0
   -1.2090   -0.8821    2.4164 H   0  0  0  0  0  0  0  0  0  0  0  0
   -2.4657    0.9151    1.3521 H   0  0  0  0  0  0  0  0  0  0  0  0
   -1.0148    2.6732   -1.0990 H   0  0  0  0  0  0  0  0  0  0  0  0
   -1.8762    2.7352    0.4217 H   0  0  0  0  0  0  0  0  0  0  0  0
   -0.8660    3.5700    0.0000 H   0  0  0  0  0  0  0  0  0  0  0  0
  1  2  1  0  0  0  0
  1 14  1  0  0  0  0
  1 15  1  0  0  0  0
  1 16  1  0  0  0  0
  2  3  1  0  0  0  0
  3  4  2  0  0  0  0
  3  5  1  0  0  0  0
  5  6  1  0  0  0  0
  5 17  1  0  0  0  0
  6 12  2  0  0  0  0
  6  7  1  0  0  0  0
  7  8  2  0  0  0  0
  7 18  1  0  0  0  0
  8  9  1  0  0  0  0
  8 19  1  0  0  0  0
  9 10  1  0  0  0  0
  9 11  2  0  0  0  0
 10 20  1  0  0  0  0
 10 21  1  0  0  0  0
 10 22  1  0  0  0  0
 11 12  1  0  0  0  0
 12 13  1  0  0  0  0
M  END
$$$$
