
 OpenBabel03202621362D

 19 20  0  0  0  0  0  0  0  0999 V2000
    0.4612   -1.7213    0.0000 C   0  0  0  0  0  0  0  0  0  0  0  0
   -0.2079   -0.9781    0.0000 C   0  0  0  0  0  0  0  0  0  0  0  0
   -1.5810   -1.0888   -0.0000 C   0  0  0  0  0  0  0  0  0  0  0  0
   -2.0828    0.1774   -0.0000 N   0  0  0  0  0  0  0  0  0  0  0  0
   -3.4511    0.4835    0.0000 C   0  0  0  0  0  0  0  0  0  0  0  0
   -4.3858   -0.4829    0.0000 N   0  0  0  0  0  0  0  0  0  0  0  0
   -5.4965    0.2740    0.0000 N   0  0  0  0  0  0  0  0  0  0  0  0
   -5.1798    1.6056    0.0000 C   0  0  0  0  0  0  0  0  0  0  0  0
   -6.0735    2.5929   -0.0000 N   0  0  0  0  0  0  0  0  0  0  0  0
   -3.8901    1.7618    0.0000 N   0  0  0  0  0  0  0  0  0  0  0  0
   -1.0620    1.0616   -0.0000 N   0  0  0  0  0  0  0  0  0  0  0  0
    0.0701    0.3746   -0.0000 N   0  0  0  0  0  0  0  0  0  0  0  0
   -0.0676   -2.6889    0.0000 H   0  0  0  0  0  0  0  0  0  0  0  0
    1.4655   -1.2701    0.0000 H   0  0  0  0  0  0  0  0  0  0  0  0
    1.1771   -2.5165    0.0000 H   0  0  0  0  0  0  0  0  0  0  0  0
   -2.2338   -1.9521   -0.0000 H   0  0  0  0  0  0  0  0  0  0  0  0
   -6.4022   -0.1738   -0.0000 H   0  0  0  0  0  0  0  0  0  0  0  0
   -5.6998    3.5373    0.0000 H   0  0  0  0  0  0  0  0  0  0  0  0
   -7.0771    2.4982    0.0000 H   0  0  0  0  0  0  0  0  0  0  0  0
  1  2  1  0  0  0  0
  1 13  1  0  0  0  0
  1 14  1  0  0  0  0
  1 15  1  0  0  0  0
  2 12  1  0  0  0  0
  2  3  2  0  0  0  0
  3  4  1  0  0  0  0
  3 16  1  0  0  0  0
  4  5  1  0  0  0  0
  4 11  1  0  0  0  0
  5 10  1  0  0  0  0
  5  6  2  0  0  0  0
  6  7  1  0  0  0  0
  7  8  1  0  0  0  0
  7 17  1  0  0  0  0
  8  9  1  0  0  0  0
  8 10  2  0  0  0  0
  9 18  1  0  0  0  0
  9 19  1  0  0  0  0
 11 12  2  0  0  0  0
M  END
$$$$
