
 OpenBabel03202621362D

 29 29  0  0  0  0  0  0  0  0999 V2000
   -2.5981   -0.5000    0.0000 C   0  0  0  0  0  0  0  0  0  0  0  0
   -2.5981   -1.5000    0.0000 C   0  0  0  0  0  0  0  0  0  0  0  0
   -1.3312   -2.2176    0.1734 O   0  0  0  0  0  0  0  0  0  0  0  0
   -0.7132   -2.8190   -0.9124 C   0  0  0  0  0  0  0  0  0  0  0  0
   -0.4697   -3.9954   -1.0060 O   0  0  0  0  0  0  0  0  0  0  0  0
    0.0673   -1.7800   -1.6416 C   0  0  0  0  0  0  0  0  0  0  0  0
   -0.6819   -0.8078   -2.3039 C   0  0  0  0  0  0  0  0  0  0  0  0
   -0.6172    0.4780   -1.7941 C   0  0  0  0  0  0  0  0  0  0  0  0
    0.1723    0.6656   -0.6548 C   0  0  0  0  0  0  0  0  0  0  0  0
   -0.2573    1.6193    0.2554 N   0  0  0  0  0  0  0  0  0  0  0  0
    0.6589    2.5052    0.6407 C   0  0  0  0  0  0  0  0  0  0  0  0
    1.7841    2.3582    1.0809 O   0  0  0  0  0  0  0  0  0  0  0  0
    0.0000    4.0000    0.0000 S   0  0  0  0  0  0  0  0  0  0  0  0
    0.8660    4.5000    0.0000 C   0  0  0  0  0  0  0  0  0  0  0  0
    1.1823   -0.2147   -0.2847 C   0  0  0  0  0  0  0  0  0  0  0  0
    1.1920   -1.4519   -0.8804 C   0  0  0  0  0  0  0  0  0  0  0  0
   -2.2754   -0.3195    1.0545 H   0  0  0  0  0  0  0  0  0  0  0  0
   -3.6980   -0.3128   -0.0744 H   0  0  0  0  0  0  0  0  0  0  0  0
   -2.5981    0.5700    0.0000 H   0  0  0  0  0  0  0  0  0  0  0  0
   -3.2308   -2.0166    0.7474 H   0  0  0  0  0  0  0  0  0  0  0  0
   -2.9962   -1.9466   -0.9279 H   0  0  0  0  0  0  0  0  0  0  0  0
   -1.5331   -1.0696   -2.9269 H   0  0  0  0  0  0  0  0  0  0  0  0
   -1.3604    1.2155   -2.0865 H   0  0  0  0  0  0  0  0  0  0  0  0
   -1.1107    2.1042    0.0113 H   0  0  0  0  0  0  0  0  0  0  0  0
    0.9519    4.7532    1.0836 H   0  0  0  0  0  0  0  0  0  0  0  0
    0.5159    5.4386   -0.4743 H   0  0  0  0  0  0  0  0  0  0  0  0
    1.7926    5.0350    0.0000 H   0  0  0  0  0  0  0  0  0  0  0  0
    1.7937   -0.0448    0.6020 H   0  0  0  0  0  0  0  0  0  0  0  0
    1.8143   -2.2312   -0.4355 H   0  0  0  0  0  0  0  0  0  0  0  0
  1  2  1  0  0  0  0
  1 17  1  0  0  0  0
  1 18  1  0  0  0  0
  1 19  1  0  0  0  0
  2  3  1  0  0  0  0
  2 20  1  0  0  0  0
  2 21  1  0  0  0  0
  3  4  1  0  0  0  0
  4  5  2  0  0  0  0
  4  6  1  0  0  0  0
  6 16  2  0  0  0  0
  6  7  1  0  0  0  0
  7  8  2  0  0  0  0
  7 22  1  0  0  0  0
  8  9  1  0  0  0  0
  8 23  1  0  0  0  0
  9 10  1  0  0  0  0
  9 15  2  0  0  0  0
 10 11  1  0  0  0  0
 10 24  1  0  0  0  0
 11 12  2  0  0  0  0
 11 13  1  0  0  0  0
 13 14  1  0  0  0  0
 14 25  1  0  0  0  0
 14 26  1  0  0  0  0
 14 27  1  0  0  0  0
 15 16  1  0  0  0  0
 15 28  1  0  0  0  0
 16 29  1  0  0  0  0
M  END
$$$$
