
 OpenBabel03202621282D

 18 18  0  0  0  0  0  0  0  0999 V2000
    0.8090    1.5878    0.0000 C   0  0  0  0  0  0  0  0  0  0  0  0
    0.8090    0.5878    0.0000 C   0  0  0  0  0  0  0  0  0  0  0  0
    1.6180    0.0000    0.0000 C   0  0  0  0  0  0  0  0  0  0  0  0
    1.3090   -0.9511    0.0000 N   0  0  0  0  0  0  0  0  0  0  0  0
    1.8968   -1.7601    0.0000 C   0  0  0  0  0  0  0  0  0  0  0  0
    2.8913   -1.6555    0.0000 C   0  0  0  0  0  0  0  0  0  0  0  0
    3.4791   -2.4646    0.0000 N   0  0  0  0  0  0  0  0  0  0  0  0
    3.0724   -3.3781    0.0000 C   0  0  0  0  0  0  0  0  0  0  0  0
    2.0779   -3.4826    0.0000 C   0  0  0  0  0  0  0  0  0  0  0  0
    1.6711   -4.3962    0.0000 N   0  0  0  0  0  0  0  0  0  0  0  0
    0.6766   -4.5007    0.0000 C   0  0  0  0  0  0  0  0  0  0  0  0
    2.2589   -5.2052    0.0000 C   0  0  0  0  0  0  0  0  0  0  0  0
    4.4736   -2.3600    0.0000 C   0  0  0  0  0  0  0  0  0  0  0  0
    5.0614   -3.1691    0.0000 C   0  0  0  0  0  0  0  0  0  0  0  0
    4.6547   -4.0826    0.0000 C   0  0  0  0  0  0  0  0  0  0  0  0
    6.0559   -3.0645    0.0000 C   0  0  0  0  0  0  0  0  0  0  0  0
    0.3090   -0.9511    0.0000 N   0  0  0  0  0  0  0  0  0  0  0  0
    0.0000   -0.0000    0.0000 N   0  0  0  0  0  0  0  0  0  0  0  0
  1  2  1  0  0  0  0
  2 18  1  0  0  0  0
  2  3  2  0  0  0  0
  3  4  1  0  0  0  0
  4  5  1  0  0  0  0
  4 17  1  0  0  0  0
  5  6  1  0  0  0  0
  6  7  1  0  0  0  0
  7  8  1  0  0  0  0
  7 13  1  0  0  0  0
  8  9  1  0  0  0  0
  9 10  1  0  0  0  0
 10 11  1  0  0  0  0
 10 12  1  0  0  0  0
 13 14  1  0  0  0  0
 14 15  1  0  0  0  0
 14 16  1  0  0  0  0
 17 18  2  0  0  0  0
M  END
$$$$
