
 OpenBabel03202621332D

 34 33  0  0  1  0  0  0  0  0999 V2000
   -2.5981    1.5000    0.0000 C   0  0  0  0  0  0  0  0  0  0  0  0
   -3.4641    2.0000    0.0000 C   0  0  0  0  0  0  0  0  0  0  0  0
   -4.0407    2.2978    1.2535 O   0  0  0  0  0  0  0  0  0  0  0  0
   -4.8206    1.2129    1.3707 C   0  0  0  0  0  0  0  0  0  0  0  0
   -5.9593    1.2541    1.0225 O   0  0  0  0  0  0  0  0  0  0  0  0
   -3.6406    0.0271    1.6456 C   0  0  2  0  0  0  0  0  0  0  0  0
   -3.1913   -0.7566    0.2121 C   0  0  0  0  0  0  0  0  0  0  0  0
   -4.3301   -1.5000    0.0000 C   0  0  0  0  0  0  0  0  0  0  0  0
   -5.1962   -1.0000    0.0000 C   0  0  0  0  0  0  0  0  0  0  0  0
   -4.3301   -2.5000    0.0000 C   0  0  0  0  0  0  0  0  0  0  0  0
   -2.3562    0.2853    2.3346 N   0  0  0  0  0  0  0  0  0  0  0  0
   -1.2116   -0.1696    1.8059 C   0  0  0  0  0  0  0  0  0  0  0  0
   -0.5280   -1.0530    2.2702 O   0  0  0  0  0  0  0  0  0  0  0  0
   -0.8660    0.5000    0.0000 S   0  0  0  0  0  0  0  0  0  0  0  0
    0.0000    0.0000    0.0000 C   0  0  0  0  0  0  0  0  0  0  0  0
   -2.5938    1.4002   -1.1477 H   0  0  0  0  0  0  0  0  0  0  0  0
   -1.9189    2.4283    0.1485 H   0  0  0  0  0  0  0  0  0  0  0  0
   -1.6715    0.9650    0.0000 H   0  0  0  0  0  0  0  0  0  0  0  0
   -3.3491    3.0956   -0.2339 H   0  0  0  0  0  0  0  0  0  0  0  0
   -4.2465    1.9513   -0.7970 H   0  0  0  0  0  0  0  0  0  0  0  0
   -4.1865   -0.5841    2.3676 H   0  0  0  0  0  0  0  0  0  0  0  0
   -3.1214   -0.3531   -0.8193 H   0  0  0  0  0  0  0  0  0  0  0  0
   -2.3149   -1.4225    0.3142 H   0  0  0  0  0  0  0  0  0  0  0  0
   -4.2902   -1.7519    1.0841 H   0  0  0  0  0  0  0  0  0  0  0  0
   -5.9059   -1.4878    0.7689 H   0  0  0  0  0  0  0  0  0  0  0  0
   -5.5774   -1.1234   -1.0558 H   0  0  0  0  0  0  0  0  0  0  0  0
   -6.1229   -0.4650    0.0000 H   0  0  0  0  0  0  0  0  0  0  0  0
   -4.7329   -2.7733   -1.0250 H   0  0  0  0  0  0  0  0  0  0  0  0
   -3.2558   -2.8467   -0.0416 H   0  0  0  0  0  0  0  0  0  0  0  0
   -4.3301   -3.5700    0.0000 H   0  0  0  0  0  0  0  0  0  0  0  0
   -2.3366    1.2956    2.5413 H   0  0  0  0  0  0  0  0  0  0  0  0
   -0.1456   -0.6085   -0.9149 H   0  0  0  0  0  0  0  0  0  0  0  0
    0.6850    0.8336   -0.2527 H   0  0  0  0  0  0  0  0  0  0  0  0
    0.9266   -0.5350    0.0000 H   0  0  0  0  0  0  0  0  0  0  0  0
  1  2  1  0  0  0  0
  1 16  1  0  0  0  0
  1 17  1  0  0  0  0
  1 18  1  0  0  0  0
  2  3  1  0  0  0  0
  2 19  1  0  0  0  0
  2 20  1  0  0  0  0
  3  4  1  0  0  0  0
  4  5  2  0  0  0  0
  4  6  1  0  0  0  0
  6  7  1  0  0  0  0
  6 11  1  0  0  0  0
  6 21  1  6  0  0  0
  7  8  1  0  0  0  0
  7 22  1  0  0  0  0
  7 23  1  0  0  0  0
  8  9  1  0  0  0  0
  8 10  1  0  0  0  0
  8 24  1  0  0  0  0
  9 25  1  0  0  0  0
  9 26  1  0  0  0  0
  9 27  1  0  0  0  0
 10 28  1  0  0  0  0
 10 29  1  0  0  0  0
 10 30  1  0  0  0  0
 11 12  1  0  0  0  0
 11 31  1  0  0  0  0
 12 13  2  0  0  0  0
 12 14  1  0  0  0  0
 14 15  1  0  0  0  0
 15 32  1  0  0  0  0
 15 33  1  0  0  0  0
 15 34  1  0  0  0  0
M  END
$$$$
