
 OpenBabel03202621382D

 58 60  0  0  1  0  0  0  0  0999 V2000
   -1.7321    5.0000    0.0000 C   0  0  0  0  0  0  0  0  0  0  0  0
   -2.5981    4.5000    0.0000 C   0  0  0  0  0  0  0  0  0  0  0  0
   -3.4770    4.5727    0.8567 O   0  0  0  0  0  0  0  0  0  0  0  0
   -2.7967    3.5739   -1.2296 C   0  0  0  0  0  0  0  0  0  0  0  0
   -3.1526    2.0989   -1.1320 C   0  0  0  0  0  0  0  0  0  0  0  0
   -3.3014    1.4402   -2.1595 O   0  0  0  0  0  0  0  0  0  0  0  0
   -3.2493    1.4320    0.2377 C   0  0  2  0  0  0  0  0  0  0  0  0
   -4.3124    0.5320    0.4472 O   0  0  0  0  0  0  0  0  0  0  0  0
   -5.3652    0.9732    1.2054 C   0  0  0  0  0  0  0  0  0  0  0  0
   -5.3072    2.2575    1.7023 C   0  0  0  0  0  0  0  0  0  0  0  0
   -5.9232    3.2492    0.9638 C   0  0  0  0  0  0  0  0  0  0  0  0
   -6.9282    3.0000    0.0000 C   0  0  0  0  0  0  0  0  0  0  0  0
   -7.7942    3.5000    0.0000 C   0  0  0  0  0  0  0  0  0  0  0  0
   -7.2678    1.5742   -0.0099 C   0  0  0  0  0  0  0  0  0  0  0  0
   -8.4713    0.9570   -0.4059 N   0  0  0  0  0  0  0  0  0  0  0  0
   -8.5721   -0.3087    0.1022 C   0  0  0  0  0  0  0  0  0  0  0  0
   -7.3829   -0.5940    0.7226 C   0  0  0  0  0  0  0  0  0  0  0  0
   -6.5927    0.5897    0.6913 C   0  0  0  0  0  0  0  0  0  0  0  0
   -2.1525    0.5547    0.7217 C   0  0  0  0  0  0  0  0  0  0  0  0
   -1.4497    0.9902    1.6481 O   0  0  0  0  0  0  0  0  0  0  0  0
   -1.8329   -0.8222    0.1643 C   0  0  2  0  0  0  0  0  0  0  0  0
   -2.8600   -1.7600   -0.5407 C   0  0  0  0  0  0  0  0  0  0  0  0
   -4.2365   -2.0376    0.0614 C   0  0  0  0  0  0  0  0  0  0  0  0
   -4.6118   -3.3978   -0.1455 O   0  0  0  0  0  0  0  0  0  0  0  0
   -0.5535   -0.8111   -0.6827 C   0  0  0  0  0  0  0  0  0  0  0  0
   -0.3522   -1.6363   -1.5851 O   0  0  0  0  0  0  0  0  0  0  0  0
    0.6212    0.0221   -0.3292 C   0  0  0  0  0  0  0  0  0  0  0  0
    0.5887    1.4173   -0.3060 C   0  0  0  0  0  0  0  0  0  0  0  0
    1.7328    2.1448    0.0274 C   0  0  0  0  0  0  0  0  0  0  0  0
    2.9238    1.4779    0.2986 C   0  0  0  0  0  0  0  0  0  0  0  0
    2.9787    0.0870    0.2295 C   0  0  0  0  0  0  0  0  0  0  0  0
    1.8426   -0.6441   -0.0954 C   0  0  0  0  0  0  0  0  0  0  0  0
    1.9635   -1.9951   -0.1826 O   0  0  0  0  0  0  0  0  0  0  0  0
   -1.3446    4.6137    0.9728 H   0  0  0  0  0  0  0  0  0  0  0  0
   -2.1566    6.0298    0.0717 H   0  0  0  0  0  0  0  0  0  0  0  0
   -0.8055    5.5350    0.0000 H   0  0  0  0  0  0  0  0  0  0  0  0
   -3.5068    4.0693   -1.9036 H   0  0  0  0  0  0  0  0  0  0  0  0
   -1.8338    3.5512   -1.7695 H   0  0  0  0  0  0  0  0  0  0  0  0
   -3.2244    2.2512    0.9503 H   0  0  0  0  0  0  0  0  0  0  0  0
   -4.5862    2.5289    2.4712 H   0  0  0  0  0  0  0  0  0  0  0  0
   -5.7759    4.2723    1.3262 H   0  0  0  0  0  0  0  0  0  0  0  0
   -7.4372    4.5612    0.0804 H   0  0  0  0  0  0  0  0  0  0  0  0
   -8.0193    3.4515   -1.1010 H   0  0  0  0  0  0  0  0  0  0  0  0
   -8.7208    4.0350    0.0000 H   0  0  0  0  0  0  0  0  0  0  0  0
   -9.2287    1.4510   -0.8569 H   0  0  0  0  0  0  0  0  0  0  0  0
   -9.4854   -0.8798   -0.0070 H   0  0  0  0  0  0  0  0  0  0  0  0
   -7.1537   -1.5146    1.2460 H   0  0  0  0  0  0  0  0  0  0  0  0
   -1.5673   -1.3814    1.0769 H   0  0  0  0  0  0  0  0  0  0  0  0
   -2.3698   -2.7412   -0.6263 H   0  0  0  0  0  0  0  0  0  0  0  0
   -3.0070   -1.4269   -1.5753 H   0  0  0  0  0  0  0  0  0  0  0  0
   -4.9835   -1.4539   -0.4827 H   0  0  0  0  0  0  0  0  0  0  0  0
   -4.2865   -1.8404    1.1351 H   0  0  0  0  0  0  0  0  0  0  0  0
   -5.5808   -3.4351   -0.0537 H   0  0  0  0  0  0  0  0  0  0  0  0
   -0.3126    1.9649   -0.5368 H   0  0  0  0  0  0  0  0  0  0  0  0
    1.6961    3.2311    0.0766 H   0  0  0  0  0  0  0  0  0  0  0  0
    3.8221    2.0426    0.5472 H   0  0  0  0  0  0  0  0  0  0  0  0
    3.9150   -0.4373    0.4124 H   0  0  0  0  0  0  0  0  0  0  0  0
    1.2304   -2.3302   -0.7436 H   0  0  0  0  0  0  0  0  0  0  0  0
  1  2  1  0  0  0  0
  1 34  1  0  0  0  0
  1 35  1  0  0  0  0
  1 36  1  0  0  0  0
  2  3  2  0  0  0  0
  2  4  1  0  0  0  0
  4  5  1  0  0  0  0
  4 37  1  0  0  0  0
  4 38  1  0  0  0  0
  5  6  2  0  0  0  0
  7  5  1  0  0  0  0
  7  8  1  0  0  0  0
  7 19  1  0  0  0  0
  7 39  1  6  0  0  0
  8  9  1  0  0  0  0
  9 18  2  0  0  0  0
  9 10  1  0  0  0  0
 10 11  2  0  0  0  0
 10 40  1  0  0  0  0
 11 12  1  0  0  0  0
 11 41  1  0  0  0  0
 12 13  1  0  0  0  0
 12 14  2  0  0  0  0
 13 42  1  0  0  0  0
 13 43  1  0  0  0  0
 13 44  1  0  0  0  0
 14 18  1  0  0  0  0
 14 15  1  0  0  0  0
 15 16  1  0  0  0  0
 15 45  1  0  0  0  0
 16 17  2  0  0  0  0
 16 46  1  0  0  0  0
 17 18  1  0  0  0  0
 17 47  1  0  0  0  0
 19 20  2  0  0  0  0
 19 21  1  0  0  0  0
 21 22  1  0  0  0  0
 21 25  1  0  0  0  0
 21 48  1  6  0  0  0
 22 23  1  0  0  0  0
 22 49  1  0  0  0  0
 22 50  1  0  0  0  0
 23 24  1  0  0  0  0
 23 51  1  0  0  0  0
 23 52  1  0  0  0  0
 24 53  1  0  0  0  0
 25 26  2  0  0  0  0
 25 27  1  0  0  0  0
 27 32  2  0  0  0  0
 27 28  1  0  0  0  0
 28 29  2  0  0  0  0
 28 54  1  0  0  0  0
 29 30  1  0  0  0  0
 29 55  1  0  0  0  0
 30 31  2  0  0  0  0
 30 56  1  0  0  0  0
 31 32  1  0  0  0  0
 31 57  1  0  0  0  0
 32 33  1  0  0  0  0
 33 58  1  0  0  0  0
M  END
$$$$
