
 OpenBabel03202621382D

 19 19  0  0  0  0  0  0  0  0999 V2000
    4.4641   -1.0000    0.0000 C   0  0  0  0  0  0  0  0  0  0  0  0
    4.4641    0.0000    0.0000 S   0  0  0  0  0  0  0  0  0  0  0  0
    2.7910    0.6473    0.2123 C   0  0  0  0  0  0  0  0  0  0  0  0
    1.7356   -0.2016   -0.2208 O   0  0  0  0  0  0  0  0  0  0  0  0
    0.5581    0.4815   -0.2760 C   0  0  0  0  0  0  0  0  0  0  0  0
    0.4108    1.6899   -0.1327 O   0  0  0  0  0  0  0  0  0  0  0  0
   -0.5980   -0.4137   -0.4894 C   0  0  0  0  0  0  0  0  0  0  0  0
   -0.8096   -1.6308    0.3798 C   0  0  0  0  0  0  0  0  0  0  0  0
   -1.6952   -0.4371    0.5524 C   0  0  0  0  0  0  0  0  0  0  0  0
    4.3514   -1.1778   -1.0880 H   0  0  0  0  0  0  0  0  0  0  0  0
    5.5261   -1.1710    0.2594 H   0  0  0  0  0  0  0  0  0  0  0  0
    4.4641   -2.0700    0.0000 H   0  0  0  0  0  0  0  0  0  0  0  0
    2.7809    1.5816   -0.3608 H   0  0  0  0  0  0  0  0  0  0  0  0
    2.6479    0.8900    1.2708 H   0  0  0  0  0  0  0  0  0  0  0  0
   -0.9212   -0.4681   -1.5235 H   0  0  0  0  0  0  0  0  0  0  0  0
   -0.0785   -1.8426    1.1529 H   0  0  0  0  0  0  0  0  0  0  0  0
   -1.2280   -2.5164   -0.0884 H   0  0  0  0  0  0  0  0  0  0  0  0
   -1.5684    0.1723    1.4420 H   0  0  0  0  0  0  0  0  0  0  0  0
   -2.7192   -0.4982    0.2063 H   0  0  0  0  0  0  0  0  0  0  0  0
  1  2  1  0  0  0  0
  1 10  1  0  0  0  0
  1 11  1  0  0  0  0
  1 12  1  0  0  0  0
  2  3  1  0  0  0  0
  3  4  1  0  0  0  0
  3 13  1  0  0  0  0
  3 14  1  0  0  0  0
  4  5  1  0  0  0  0
  5  6  2  0  0  0  0
  5  7  1  0  0  0  0
  7  9  1  0  0  0  0
  7  8  1  0  0  0  0
  7 15  1  0  0  0  0
  8  9  1  0  0  0  0
  8 16  1  0  0  0  0
  8 17  1  0  0  0  0
  9 18  1  0  0  0  0
  9 19  1  0  0  0  0
M  END
$$$$
