
 OpenBabel03202621312D

 30 31  0  0  1  0  0  0  0  0999 V2000
    2.6417   -0.6801   -0.1918 C   0  0  0  0  0  0  0  0  0  0  0  0
    1.1620   -0.9065   -0.1035 C   0  0  0  0  0  0  0  0  0  0  0  0
    0.6769   -2.2007    0.1258 C   0  0  0  0  0  0  0  0  0  0  0  0
   -0.6938   -2.4371    0.2806 C   0  0  0  0  0  0  0  0  0  0  0  0
   -1.6290   -1.3897    0.2217 C   0  0  0  0  0  0  0  0  0  0  0  0
   -3.1071   -1.6675    0.5045 C   0  0  3  0  0  0  0  0  0  0  0  0
   -3.1398   -2.6520    1.5615 O   0  0  0  0  0  0  0  0  0  0  0  0
   -3.8147   -2.2999   -0.7026 C   0  0  0  0  0  0  0  0  0  0  0  0
   -5.2848   -1.9096   -0.7280 C   0  0  0  0  0  0  0  0  0  0  0  0
   -5.3913   -0.5124   -0.9815 O   0  0  0  0  0  0  0  0  0  0  0  0
   -4.7413    0.2921   -0.0109 C   0  0  0  0  0  0  0  0  0  0  0  0
   -3.8713   -0.4283    1.0130 C   0  0  0  0  0  0  0  0  0  0  0  0
   -3.8076   -0.0305    2.1822 O   0  0  0  0  0  0  0  0  0  0  0  0
   -1.1418   -0.1096   -0.0832 C   0  0  0  0  0  0  0  0  0  0  0  0
    0.2299    0.1249   -0.2336 C   0  0  0  0  0  0  0  0  0  0  0  0
    0.5872    1.4176   -0.4873 O   0  0  0  0  0  0  0  0  0  0  0  0
    3.2035   -1.5843    0.0636 H   0  0  0  0  0  0  0  0  0  0  0  0
    2.9490    0.0971    0.5180 H   0  0  0  0  0  0  0  0  0  0  0  0
    2.9218   -0.3801   -1.2050 H   0  0  0  0  0  0  0  0  0  0  0  0
    1.3632   -3.0390    0.2169 H   0  0  0  0  0  0  0  0  0  0  0  0
   -1.0252   -3.4519    0.4958 H   0  0  0  0  0  0  0  0  0  0  0  0
   -4.0423   -2.6890    1.9184 H   0  0  0  0  0  0  0  0  0  0  0  0
   -3.3535   -1.9576   -1.6376 H   0  0  0  0  0  0  0  0  0  0  0  0
   -3.7324   -3.3935   -0.6703 H   0  0  0  0  0  0  0  0  0  0  0  0
   -5.8021   -2.4334   -1.5383 H   0  0  0  0  0  0  0  0  0  0  0  0
   -5.8023   -2.1591    0.2074 H   0  0  0  0  0  0  0  0  0  0  0  0
   -5.5206    0.8391    0.5316 H   0  0  0  0  0  0  0  0  0  0  0  0
   -4.1282    1.0291   -0.5371 H   0  0  0  0  0  0  0  0  0  0  0  0
   -1.8021    0.7475   -0.1731 H   0  0  0  0  0  0  0  0  0  0  0  0
    1.5550    1.4904   -0.4864 H   0  0  0  0  0  0  0  0  0  0  0  0
  1  2  1  0  0  0  0
  1 17  1  0  0  0  0
  1 18  1  0  0  0  0
  1 19  1  0  0  0  0
  2 15  2  0  0  0  0
  2  3  1  0  0  0  0
  3  4  2  0  0  0  0
  3 20  1  0  0  0  0
  4  5  1  0  0  0  0
  4 21  1  0  0  0  0
  5  6  1  0  0  0  0
  5 14  2  0  0  0  0
  6 12  1  0  0  0  0
  6  7  1  0  0  0  0
  6  8  1  0  0  0  0
  7 22  1  0  0  0  0
  8  9  1  0  0  0  0
  8 23  1  0  0  0  0
  8 24  1  0  0  0  0
  9 10  1  0  0  0  0
  9 25  1  0  0  0  0
  9 26  1  0  0  0  0
 10 11  1  0  0  0  0
 11 12  1  0  0  0  0
 11 27  1  0  0  0  0
 11 28  1  0  0  0  0
 12 13  2  0  0  0  0
 14 15  1  0  0  0  0
 14 29  1  0  0  0  0
 15 16  1  0  0  0  0
 16 30  1  0  0  0  0
M  END
$$$$
