
 OpenBabel03202621362D

 29 30  0  0  1  0  0  0  0  0999 V2000
    1.1603   -1.1603    0.0000 C   0  0  0  0  0  0  0  0  0  0  0  0
    0.2452   -0.9151    0.0000 C   0  0  0  0  0  0  0  0  0  0  0  0
   -0.6567   -1.8106    0.5837 C   0  0  0  0  0  0  0  0  0  0  0  0
   -2.0261   -1.5739    0.6738 C   0  0  0  0  0  0  0  0  0  0  0  0
   -2.6215   -0.4284    0.1370 C   0  0  0  0  0  0  0  0  0  0  0  0
   -4.1631   -0.3702    0.1948 C   0  0  3  0  0  0  0  0  0  0  0  0
   -4.4309   -0.2940    1.6232 O   0  0  0  0  0  0  0  0  0  0  0  0
   -4.9328    0.8019   -0.4298 C   0  0  0  0  0  0  0  0  0  0  0  0
   -6.4175    0.7502   -0.0300 C   0  0  0  0  0  0  0  0  0  0  0  0
   -7.0690   -0.5164   -0.0386 O   0  0  0  0  0  0  0  0  0  0  0  0
   -6.2819   -1.5793   -0.3517 C   0  0  0  0  0  0  0  0  0  0  0  0
   -4.9356   -1.6282   -0.3864 C   0  0  0  0  0  0  0  0  0  0  0  0
   -4.2397   -2.5520   -0.9046 O   0  5  0  0  0  0  0  0  0  0  0  0
   -1.6847    0.4770   -0.3340 C   0  0  0  0  0  0  0  0  0  0  0  0
   -1.9616    1.9122   -0.5661 C   0  0  0  0  0  0  0  0  0  0  0  0
   -2.6063    2.6176    0.2059 O   0  0  0  0  0  0  0  0  0  0  0  0
   -0.3056    0.2507   -0.4472 N   0  0  0  0  0  0  0  0  0  0  0  0
    1.3318   -1.2556   -1.0994 H   0  0  0  0  0  0  0  0  0  0  0  0
    1.6326   -0.2298    0.3996 H   0  0  0  0  0  0  0  0  0  0  0  0
    2.1938   -1.4372    0.0000 H   0  0  0  0  0  0  0  0  0  0  0  0
   -0.3087   -2.7679    0.9811 H   0  0  0  0  0  0  0  0  0  0  0  0
   -2.6571   -2.3442    1.1203 H   0  0  0  0  0  0  0  0  0  0  0  0
   -3.9548    0.4916    1.9322 H   0  0  0  0  0  0  0  0  0  0  0  0
   -4.8333    0.7862   -1.5228 H   0  0  0  0  0  0  0  0  0  0  0  0
   -4.5936    1.7745   -0.0851 H   0  0  0  0  0  0  0  0  0  0  0  0
   -6.9855    1.3978   -0.7081 H   0  0  0  0  0  0  0  0  0  0  0  0
   -6.5483    1.1737    0.9733 H   0  0  0  0  0  0  0  0  0  0  0  0
   -6.8898   -2.4231   -0.6523 H   0  0  0  0  0  0  0  0  0  0  0  0
   -1.4234    2.3520   -1.4213 H   0  0  0  0  0  0  0  0  0  0  0  0
  1  2  1  0  0  0  0
  1 18  1  0  0  0  0
  1 19  1  0  0  0  0
  1 20  1  0  0  0  0
  2 17  2  0  0  0  0
  2  3  1  0  0  0  0
  3  4  2  0  0  0  0
  3 21  1  0  0  0  0
  4  5  1  0  0  0  0
  4 22  1  0  0  0  0
  5  6  1  0  0  0  0
  5 14  2  0  0  0  0
  6 12  1  0  0  0  0
  6  7  1  0  0  0  0
  6  8  1  0  0  0  0
  7 23  1  0  0  0  0
  8  9  1  0  0  0  0
  8 24  1  0  0  0  0
  8 25  1  0  0  0  0
  9 10  1  0  0  0  0
  9 26  1  0  0  0  0
  9 27  1  0  0  0  0
 10 11  1  0  0  0  0
 11 12  2  0  0  0  0
 11 28  1  0  0  0  0
 12 13  1  0  0  0  0
 14 15  1  0  0  0  0
 14 17  1  0  0  0  0
 15 16  2  0  0  0  0
 15 29  1  0  0  0  0
M  CHG  1  13  -1
M  END
$$$$
