
 OpenBabel03202621282D

 12 12  0  0  1  0  0  0  0  0999 V2000
   -0.3856   -2.0059    0.0000 C   0  0  0  0  0  0  0  0  0  0  0  0
   -0.1467   -1.1143    0.0000 C   0  0  0  0  0  0  0  0  0  0  0  0
    1.6366   -0.6364    0.0000 C   0  0  0  0  0  0  0  0  0  0  0  0
    2.5282   -0.3975    0.0000 N   0  0  0  0  0  0  0  0  0  0  0  0
   -0.7994   -0.4615    0.0000 C   0  0  3  0  0  0  0  0  0  0  0  0
   -1.6522   -0.8148    0.0000 O   0  0  0  0  0  0  0  0  0  0  0  0
   -1.5988   -0.0000    0.0000 C   0  0  0  0  0  0  0  0  0  0  0  0
   -1.5988    0.9231    0.0000 C   0  0  0  0  0  0  0  0  0  0  0  0
   -0.7994    1.3846    0.0000 O   0  0  0  0  0  0  0  0  0  0  0  0
   -0.0000    0.9231    0.0000 C   0  0  0  0  0  0  0  0  0  0  0  0
    0.0000    0.0000    0.0000 C   0  0  0  0  0  0  0  0  0  0  0  0
    0.7994   -0.4615    0.0000 O   0  0  0  0  0  0  0  0  0  0  0  0
  1  2  2  0  0  0  0
  2  3  1  0  0  0  0
  2  5  1  0  0  0  0
  3  4  3  0  0  0  0
  5 11  1  0  0  0  0
  5  6  1  0  0  0  0
  5  7  1  0  0  0  0
  7  8  1  0  0  0  0
  8  9  1  0  0  0  0
  9 10  1  0  0  0  0
 10 11  2  0  0  0  0
 11 12  1  0  0  0  0
M  END
$$$$
