
 OpenBabel03202621332D

 22 23  0  0  0  0  0  0  0  0999 V2000
    1.7321    0.0000    0.0000 C   0  0  0  0  0  0  0  0  0  0  0  0
    0.8660   -0.5000    0.0000 C   0  0  0  0  0  0  0  0  0  0  0  0
    1.2403   -1.7697   -0.0000 C   0  0  0  0  0  0  0  0  0  0  0  0
    0.0000   -2.0000    0.0000 C   0  0  0  0  0  0  0  0  0  0  0  0
    0.0000   -3.0000    0.0000 C   0  0  0  0  0  0  0  0  0  0  0  0
   -1.2529   -1.4590    0.0000 N   0  0  0  0  0  0  0  0  0  0  0  0
   -2.4526   -2.0322    0.0000 N   0  0  0  0  0  0  0  0  0  0  0  0
   -3.2020   -0.9606   -0.0000 C   0  0  0  0  0  0  0  0  0  0  0  0
   -4.8921   -1.1278    0.0000 S   0  0  0  0  0  0  0  0  0  0  0  0
   -5.1332    0.5922    0.0000 C   0  0  0  0  0  0  0  0  0  0  0  0
   -6.2517    1.0498   -0.0000 O   0  0  0  0  0  0  0  0  0  0  0  0
   -2.5440    0.2374   -0.0000 N   0  0  0  0  0  0  0  0  0  0  0  0
   -1.3175   -0.1466   -0.0000 C   0  0  0  0  0  0  0  0  0  0  0  0
   -0.1216    0.3705    0.0000 N   0  0  0  0  0  0  0  0  0  0  0  0
    2.6879   -0.5921    0.0000 H   0  0  0  0  0  0  0  0  0  0  0  0
    1.5793    1.1114    0.0000 H   0  0  0  0  0  0  0  0  0  0  0  0
    2.6588    0.5350    0.0000 H   0  0  0  0  0  0  0  0  0  0  0  0
    2.1886   -2.3160   -0.0000 H   0  0  0  0  0  0  0  0  0  0  0  0
   -1.0043   -3.4648   -0.0000 H   0  0  0  0  0  0  0  0  0  0  0  0
    0.9753   -3.5903    0.0000 H   0  0  0  0  0  0  0  0  0  0  0  0
    0.0000   -4.0700    0.0000 H   0  0  0  0  0  0  0  0  0  0  0  0
   -4.2612    1.2738    0.0000 H   0  0  0  0  0  0  0  0  0  0  0  0
  1  2  1  0  0  0  0
  1 15  1  0  0  0  0
  1 16  1  0  0  0  0
  1 17  1  0  0  0  0
  2 14  2  0  0  0  0
  2  3  1  0  0  0  0
  3  4  2  0  0  0  0
  3 18  1  0  0  0  0
  4  5  1  0  0  0  0
  4  6  1  0  0  0  0
  5 19  1  0  0  0  0
  5 20  1  0  0  0  0
  5 21  1  0  0  0  0
  6 13  1  0  0  0  0
  6  7  1  0  0  0  0
  7  8  2  0  0  0  0
  8  9  1  0  0  0  0
  8 12  1  0  0  0  0
  9 10  1  0  0  0  0
 10 11  2  0  0  0  0
 10 22  1  0  0  0  0
 12 13  2  0  0  0  0
 13 14  1  0  0  0  0
M  END
$$$$
