
 OpenBabel03202621372D

 24 24  0  0  0  0  0  0  0  0999 V2000
    2.4662    3.3298    0.0173 C   0  0  0  0  0  0  0  0  0  0  0  0
    1.3347    2.5076   -0.3771 N   0  0  0  0  0  0  0  0  0  0  0  0
    1.3713    1.1299   -0.1596 C   0  0  0  0  0  0  0  0  0  0  0  0
    2.5389    0.3979   -0.0229 C   0  0  0  0  0  0  0  0  0  0  0  0
    2.4827   -0.9769    0.1920 C   0  0  0  0  0  0  0  0  0  0  0  0
    1.2473   -1.6606    0.2157 C   0  0  0  0  0  0  0  0  0  0  0  0
    1.2231   -3.4577    0.5828 S   0  0  0  0  0  0  0  0  0  0  0  0
    2.8731   -4.0205    0.0891 C   0  0  0  0  0  0  0  0  0  0  0  0
    0.0000   -1.0000    0.0000 C   0  0  0  0  0  0  0  0  0  0  0  0
   -0.8660   -1.5000    0.0000 C   0  0  0  0  0  0  0  0  0  0  0  0
    0.1612    0.4058   -0.2018 C   0  0  0  0  0  0  0  0  0  0  0  0
    2.9537    2.9728    0.9312 H   0  0  0  0  0  0  0  0  0  0  0  0
    2.1198    4.3499    0.2163 H   0  0  0  0  0  0  0  0  0  0  0  0
    3.1997    3.3802   -0.7932 H   0  0  0  0  0  0  0  0  0  0  0  0
    0.4425    2.9122   -0.1027 H   0  0  0  0  0  0  0  0  0  0  0  0
    3.5105    0.8767   -0.0498 H   0  0  0  0  0  0  0  0  0  0  0  0
    3.4187   -1.4948    0.3542 H   0  0  0  0  0  0  0  0  0  0  0  0
    2.8856   -5.1139    0.0939 H   0  0  0  0  0  0  0  0  0  0  0  0
    3.6279   -3.6759    0.7999 H   0  0  0  0  0  0  0  0  0  0  0  0
    3.1208   -3.6792   -0.9201 H   0  0  0  0  0  0  0  0  0  0  0  0
   -1.4489   -0.9083    0.7450 H   0  0  0  0  0  0  0  0  0  0  0  0
   -1.1923   -1.3231   -1.0522 H   0  0  0  0  0  0  0  0  0  0  0  0
   -1.7926   -2.0350    0.0000 H   0  0  0  0  0  0  0  0  0  0  0  0
   -0.7490    0.9885   -0.3915 H   0  0  0  0  0  0  0  0  0  0  0  0
  1  2  1  0  0  0  0
  1 12  1  0  0  0  0
  1 13  1  0  0  0  0
  1 14  1  0  0  0  0
  2  3  1  0  0  0  0
  2 15  1  0  0  0  0
  3 11  2  0  0  0  0
  3  4  1  0  0  0  0
  4  5  2  0  0  0  0
  4 16  1  0  0  0  0
  5  6  1  0  0  0  0
  5 17  1  0  0  0  0
  6  7  1  0  0  0  0
  6  9  2  0  0  0  0
  7  8  1  0  0  0  0
  8 18  1  0  0  0  0
  8 19  1  0  0  0  0
  8 20  1  0  0  0  0
  9 10  1  0  0  0  0
  9 11  1  0  0  0  0
 10 21  1  0  0  0  0
 10 22  1  0  0  0  0
 10 23  1  0  0  0  0
 11 24  1  0  0  0  0
M  END
$$$$
