
 OpenBabel03202621302D

 23 23  0  0  1  0  0  0  0  0999 V2000
    2.5543    1.2586    0.0000 C   0  0  0  0  0  0  0  0  0  0  0  0
    1.6207    1.6170    0.0000 S   0  0  0  0  0  0  0  0  0  0  0  0
    0.4583    0.9564   -0.9619 C   0  0  0  0  0  0  0  0  0  0  0  0
   -0.5974    1.3356   -1.3632 O   0  0  0  0  0  0  0  0  0  0  0  0
    1.0000    0.0000    0.0000 C   0  0  1  0  0  0  0  0  0  0  0  0
    1.9991   -0.0432    0.0000 C   0  0  0  0  0  0  0  0  0  0  0  0
    0.5744   -1.5386   -0.6380 C   0  0  0  0  0  0  0  0  0  0  0  0
   -0.7949   -1.9654   -0.2058 C   0  0  0  0  0  0  0  0  0  0  0  0
   -1.2419   -0.8458    0.6832 C   0  0  0  0  0  0  0  0  0  0  0  0
   -0.0009   -0.2208    1.2003 N   0  0  0  0  0  0  0  0  0  0  0  0
    2.9675    1.8574   -0.8664 H   0  0  0  0  0  0  0  0  0  0  0  0
    2.9475    1.8335    0.8900 H   0  0  0  0  0  0  0  0  0  0  0  0
    3.5532    0.8751    0.0000 H   0  0  0  0  0  0  0  0  0  0  0  0
    2.2842   -0.6015   -0.9926 H   0  0  0  0  0  0  0  0  0  0  0  0
    2.1836   -0.8079    0.8459 H   0  0  0  0  0  0  0  0  0  0  0  0
    3.0681   -0.0894    0.0000 H   0  0  0  0  0  0  0  0  0  0  0  0
    0.6807   -1.5839   -1.7317 H   0  0  0  0  0  0  0  0  0  0  0  0
    1.2664   -2.3070   -0.2283 H   0  0  0  0  0  0  0  0  0  0  0  0
   -0.7398   -2.9195    0.3334 H   0  0  0  0  0  0  0  0  0  0  0  0
   -1.4438   -2.1224   -1.0769 H   0  0  0  0  0  0  0  0  0  0  0  0
   -1.8695   -1.2248    1.4933 H   0  0  0  0  0  0  0  0  0  0  0  0
   -1.8480   -0.1436    0.1049 H   0  0  0  0  0  0  0  0  0  0  0  0
   -0.2497    0.7116    1.5429 H   0  0  0  0  0  0  0  0  0  0  0  0
  1  2  1  0  0  0  0
  1 11  1  0  0  0  0
  1 12  1  0  0  0  0
  1 13  1  0  0  0  0
  2  3  1  0  0  0  0
  3  4  2  0  0  0  0
  5  3  1  1  0  0  0
  5 10  1  0  0  0  0
  5  6  1  0  0  0  0
  5  7  1  0  0  0  0
  6 14  1  0  0  0  0
  6 15  1  0  0  0  0
  6 16  1  0  0  0  0
  7  8  1  0  0  0  0
  7 17  1  0  0  0  0
  7 18  1  0  0  0  0
  8  9  1  0  0  0  0
  8 19  1  0  0  0  0
  8 20  1  0  0  0  0
  9 10  1  0  0  0  0
  9 21  1  0  0  0  0
  9 22  1  0  0  0  0
 10 23  1  0  0  0  0
M  END
$$$$
