
 OpenBabel03202621382D

 22 21  0  0  1  0  0  0  0  0999 V2000
   -0.8660    1.5000    0.0000 C   0  0  0  0  0  0  0  0  0  0  0  0
   -1.7321    2.0000    0.0000 C   0  0  0  0  0  0  0  0  0  0  0  0
   -2.8116    1.6629    0.8704 C   0  0  0  0  0  0  0  0  0  0  0  0
   -2.5981    0.5000    0.0000 C   0  0  1  0  0  0  0  0  0  0  0  0
   -3.4641    0.0000    0.0000 C   0  0  0  0  0  0  0  0  0  0  0  0
   -4.3301   -0.5000    0.0000 N   0  0  0  0  0  0  0  0  0  0  0  0
   -1.7321    0.0000    0.0000 N   0  0  0  0  0  0  0  0  0  0  0  0
   -1.7321   -1.0000    0.0000 C   0  0  0  0  0  0  0  0  0  0  0  0
   -1.2258   -0.1407   -1.6567 C   0  0  0  0  0  0  0  0  0  0  0  0
   -0.6470   -1.0878   -2.1591 O   0  0  0  0  0  0  0  0  0  0  0  0
   -0.4828    1.7213    1.0481 H   0  0  0  0  0  0  0  0  0  0  0  0
   -0.2469    2.1721   -0.6640 H   0  0  0  0  0  0  0  0  0  0  0  0
    0.0607    0.9650    0.0000 H   0  0  0  0  0  0  0  0  0  0  0  0
   -2.0978    2.4515   -0.9674 H   0  0  0  0  0  0  0  0  0  0  0  0
   -1.5766    3.0389    0.4067 H   0  0  0  0  0  0  0  0  0  0  0  0
   -3.7166    2.2590    0.6908 H   0  0  0  0  0  0  0  0  0  0  0  0
   -2.6245    1.5595    1.9371 H   0  0  0  0  0  0  0  0  0  0  0  0
   -2.9033    0.8764   -1.0461 H   0  0  0  0  0  0  0  0  0  0  0  0
   -1.9531   -1.2108    1.1051 H   0  0  0  0  0  0  0  0  0  0  0  0
   -0.6170   -1.1697    0.1207 H   0  0  0  0  0  0  0  0  0  0  0  0
   -1.7321   -2.0700    0.0000 H   0  0  0  0  0  0  0  0  0  0  0  0
   -1.4160    0.8078   -2.1918 H   0  0  0  0  0  0  0  0  0  0  0  0
  1  2  1  0  0  0  0
  1 11  1  0  0  0  0
  1 12  1  0  0  0  0
  1 13  1  0  0  0  0
  2  3  1  0  0  0  0
  2 14  1  0  0  0  0
  2 15  1  0  0  0  0
  3 16  1  0  0  0  0
  3 17  1  0  0  0  0
  4  3  1  0  0  0  0
  4  5  1  0  0  0  0
  4  7  1  0  0  0  0
  4 18  1  1  0  0  0
  5  6  3  0  0  0  0
  7  8  1  0  0  0  0
  7  9  1  0  0  0  0
  8 19  1  0  0  0  0
  8 20  1  0  0  0  0
  8 21  1  0  0  0  0
  9 10  2  0  0  0  0
  9 22  1  0  0  0  0
M  END
$$$$
