
 OpenBabel03202621312D

 23 24  0  0  0  0  0  0  0  0999 V2000
    0.4612   -1.7213    0.0000 C   0  0  0  0  0  0  0  0  0  0  0  0
   -0.2079   -0.9781    0.0000 C   0  0  0  0  0  0  0  0  0  0  0  0
   -1.5908   -1.1158   -0.0996 C   0  0  0  0  0  0  0  0  0  0  0  0
   -2.1352    0.1386   -0.0631 N   0  0  0  0  0  0  0  0  0  0  0  0
   -3.4926    0.5032   -0.0636 C   0  0  0  0  0  0  0  0  0  0  0  0
   -4.4628   -0.4098   -0.0728 N   0  0  0  0  0  0  0  0  0  0  0  0
   -5.6295    0.3664   -0.0426 O   0  0  0  0  0  0  0  0  0  0  0  0
   -5.3328    1.7289   -0.0223 N   0  0  0  0  0  0  0  0  0  0  0  0
   -4.0022    1.8119   -0.0372 C   0  0  0  0  0  0  0  0  0  0  0  0
   -3.2226    2.9522   -0.0336 N   0  0  0  0  0  0  0  0  0  0  0  0
   -3.6918    4.2488    0.0191 C   0  0  0  0  0  0  0  0  0  0  0  0
   -4.8663    4.5776    0.1133 O   0  0  0  0  0  0  0  0  0  0  0  0
   -2.5345    5.2411    0.0033 C   0  0  0  0  0  0  0  0  0  0  0  0
   -3.0361    6.8238   -0.6064 Cl  0  0  0  0  0  0  0  0  0  0  0  0
   -1.1278    1.0440   -0.0133 N   0  0  0  0  0  0  0  0  0  0  0  0
    0.0213    0.3883    0.0286 N   0  0  0  0  0  0  0  0  0  0  0  0
    0.2169   -2.1889    0.9868 H   0  0  0  0  0  0  0  0  0  0  0  0
    1.4162   -1.1608    0.1520 H   0  0  0  0  0  0  0  0  0  0  0  0
    1.1771   -2.5165    0.0000 H   0  0  0  0  0  0  0  0  0  0  0  0
   -2.2190   -1.9956   -0.1637 H   0  0  0  0  0  0  0  0  0  0  0  0
   -2.2186    2.7908   -0.0571 H   0  0  0  0  0  0  0  0  0  0  0  0
   -1.7338    4.8786   -0.6487 H   0  0  0  0  0  0  0  0  0  0  0  0
   -2.1471    5.3540    1.0198 H   0  0  0  0  0  0  0  0  0  0  0  0
  1  2  1  0  0  0  0
  1 17  1  0  0  0  0
  1 18  1  0  0  0  0
  1 19  1  0  0  0  0
  2 16  1  0  0  0  0
  2  3  2  0  0  0  0
  3  4  1  0  0  0  0
  3 20  1  0  0  0  0
  4  5  1  0  0  0  0
  4 15  1  0  0  0  0
  5  9  1  0  0  0  0
  5  6  2  0  0  0  0
  6  7  1  0  0  0  0
  7  8  1  0  0  0  0
  8  9  2  0  0  0  0
  9 10  1  0  0  0  0
 10 11  1  0  0  0  0
 10 21  1  0  0  0  0
 11 12  2  0  0  0  0
 11 13  1  0  0  0  0
 13 14  1  0  0  0  0
 13 22  1  0  0  0  0
 13 23  1  0  0  0  0
 15 16  2  0  0  0  0
M  END
$$$$
