
 OpenBabel03202621322D

 20 20  0  0  0  0  0  0  0  0999 V2000
   -0.9573   -5.7244    0.0657 O   0  0  0  0  0  0  0  0  0  0  0  0
    0.2245   -5.4146    0.1208 C   0  0  0  0  0  0  0  0  0  0  0  0
    0.7124   -4.1325    0.0860 N   0  0  0  0  0  0  0  0  0  0  0  0
   -0.1958   -3.0022    0.0086 C   0  0  0  0  0  0  0  0  0  0  0  0
    0.5253   -1.6592   -0.0684 C   0  0  0  0  0  0  0  0  0  0  0  0
   -0.3282   -0.4827   -0.1095 N   0  0  0  0  0  0  0  0  0  0  0  0
   -1.6947   -0.4411   -0.1829 C   0  0  0  0  0  0  0  0  0  0  0  0
   -2.0882    0.8780   -0.1165 C   0  0  0  0  0  0  0  0  0  0  0  0
   -0.9176    1.6651   -0.0375 C   0  0  0  0  0  0  0  0  0  0  0  0
    0.1559    0.8027   -0.0558 C   0  0  0  0  0  0  0  0  0  0  0  0
    1.0298   -6.1612    0.2074 H   0  0  0  0  0  0  0  0  0  0  0  0
    1.7085   -3.9899    0.1960 H   0  0  0  0  0  0  0  0  0  0  0  0
   -0.8316   -3.1523   -0.8720 H   0  0  0  0  0  0  0  0  0  0  0  0
   -0.8456   -3.0434    0.8917 H   0  0  0  0  0  0  0  0  0  0  0  0
    1.1622   -1.6206   -0.9597 H   0  0  0  0  0  0  0  0  0  0  0  0
    1.1736   -1.5403    0.8089 H   0  0  0  0  0  0  0  0  0  0  0  0
   -2.2976   -1.3364   -0.2621 H   0  0  0  0  0  0  0  0  0  0  0  0
   -3.1113    1.2314   -0.1276 H   0  0  0  0  0  0  0  0  0  0  0  0
   -0.8629    2.7441    0.0241 H   0  0  0  0  0  0  0  0  0  0  0  0
    1.2195    1.0008   -0.0208 H   0  0  0  0  0  0  0  0  0  0  0  0
  1  2  2  0  0  0  0
  2  3  1  0  0  0  0
  2 11  1  0  0  0  0
  3  4  1  0  0  0  0
  3 12  1  0  0  0  0
  4  5  1  0  0  0  0
  4 13  1  0  0  0  0
  4 14  1  0  0  0  0
  5  6  1  0  0  0  0
  5 15  1  0  0  0  0
  5 16  1  0  0  0  0
  6 10  1  0  0  0  0
  6  7  1  0  0  0  0
  7  8  2  0  0  0  0
  7 17  1  0  0  0  0
  8  9  1  0  0  0  0
  8 18  1  0  0  0  0
  9 10  2  0  0  0  0
  9 19  1  0  0  0  0
 10 20  1  0  0  0  0
M  END
$$$$
