
 OpenBabel03202621322D

 31 32  0  0  0  0  0  0  0  0999 V2000
    1.4680   -2.2382    0.0000 C   0  0  0  0  0  0  0  0  0  0  0  0
    1.2601   -1.2601    0.0000 O   0  0  0  0  0  0  0  0  0  0  0  0
    0.5244   -0.9021   -1.1028 C   0  0  0  0  0  0  0  0  0  0  0  0
   -0.6594   -1.4411   -0.9190 C   0  0  0  0  0  0  0  0  0  0  0  0
   -0.5000   -2.5388    0.0000 O   0  0  0  0  0  0  0  0  0  0  0  0
   -1.3660   -3.0388    0.0000 C   0  0  0  0  0  0  0  0  0  0  0  0
   -1.4683   -0.2833   -0.7425 C   0  0  0  0  0  0  0  0  0  0  0  0
   -2.2352    0.0170    0.2997 C   0  0  0  0  0  0  0  0  0  0  0  0
   -3.3152    1.0322    0.0986 C   0  0  0  0  0  0  0  0  0  0  0  0
   -4.5004    0.2173   -0.0788 N   0  0  0  0  0  0  0  0  0  0  0  0
   -4.5577   -0.9842   -0.8009 C   0  0  0  0  0  0  0  0  0  0  0  0
   -5.2633   -1.8510    0.0000 C   0  0  0  0  0  0  0  0  0  0  0  0
   -5.8511   -2.6600    0.0000 C   0  0  0  0  0  0  0  0  0  0  0  0
   -5.5892   -1.1060    1.1453 N   0  0  0  0  0  0  0  0  0  0  0  0
   -5.3000    0.1587    0.9813 N   0  0  0  0  0  0  0  0  0  0  0  0
   -1.0349    0.7370   -1.5766 O   0  0  0  0  0  0  0  0  0  0  0  0
    0.3133    0.4834   -1.5510 C   0  0  0  0  0  0  0  0  0  0  0  0
    1.1870    1.2655   -1.8871 O   0  0  0  0  0  0  0  0  0  0  0  0
    1.6730   -2.3737    1.0862 H   0  0  0  0  0  0  0  0  0  0  0  0
    2.4726   -2.2229   -0.4854 H   0  0  0  0  0  0  0  0  0  0  0  0
    1.6905   -3.2848    0.0000 H   0  0  0  0  0  0  0  0  0  0  0  0
   -1.6111   -2.9777    1.0817 H   0  0  0  0  0  0  0  0  0  0  0  0
   -0.9820   -4.0641   -0.1834 H   0  0  0  0  0  0  0  0  0  0  0  0
   -2.2926   -3.5738    0.0000 H   0  0  0  0  0  0  0  0  0  0  0  0
   -2.3636   -0.6682    1.1348 H   0  0  0  0  0  0  0  0  0  0  0  0
   -3.2134    1.6621   -0.7854 H   0  0  0  0  0  0  0  0  0  0  0  0
   -3.4303    1.6633    0.9835 H   0  0  0  0  0  0  0  0  0  0  0  0
   -4.1106   -1.0731   -1.7824 H   0  0  0  0  0  0  0  0  0  0  0  0
   -6.4086   -2.4911   -0.9526 H   0  0  0  0  0  0  0  0  0  0  0  0
   -5.0675   -3.4345   -0.1687 H   0  0  0  0  0  0  0  0  0  0  0  0
   -6.4800   -3.5256    0.0000 H   0  0  0  0  0  0  0  0  0  0  0  0
  1  2  1  0  0  0  0
  1 19  1  0  0  0  0
  1 20  1  0  0  0  0
  1 21  1  0  0  0  0
  2  3  1  0  0  0  0
  3 17  1  0  0  0  0
  3  4  2  0  0  0  0
  4  5  1  0  0  0  0
  4  7  1  0  0  0  0
  5  6  1  0  0  0  0
  6 22  1  0  0  0  0
  6 23  1  0  0  0  0
  6 24  1  0  0  0  0
  7  8  2  3  0  0  0
  7 16  1  0  0  0  0
  8  9  1  0  0  0  0
  8 25  1  0  0  0  0
  9 10  1  0  0  0  0
  9 26  1  0  0  0  0
  9 27  1  0  0  0  0
 10 15  1  0  0  0  0
 10 11  1  0  0  0  0
 11 12  2  0  0  0  0
 11 28  1  0  0  0  0
 12 13  1  0  0  0  0
 12 14  1  0  0  0  0
 13 29  1  0  0  0  0
 13 30  1  0  0  0  0
 13 31  1  0  0  0  0
 14 15  2  0  0  0  0
 16 17  1  0  0  0  0
 17 18  2  0  0  0  0
M  END
$$$$
