
 OpenBabel03202621362D

 26 28  0  0  0  0  0  0  0  0999 V2000
    1.4945   -0.9706    0.0000 C   0  0  0  0  0  0  0  0  0  0  0  0
    0.5000   -0.8660    0.0000 C   0  0  0  0  0  0  0  0  0  0  0  0
   -0.4226   -1.9028   -0.0000 C   0  0  0  0  0  0  0  0  0  0  0  0
   -1.6587   -1.3410    0.0000 N   0  0  0  0  0  0  0  0  0  0  0  0
   -2.8954   -2.0254   -0.0000 C   0  0  0  0  0  0  0  0  0  0  0  0
   -2.9086   -3.4392   -0.0000 C   0  0  0  0  0  0  0  0  0  0  0  0
   -4.1115   -4.1292    0.0000 C   0  0  0  0  0  0  0  0  0  0  0  0
   -5.2992   -3.4082    0.0000 C   0  0  0  0  0  0  0  0  0  0  0  0
   -5.2921   -2.0000    0.0000 C   0  0  0  0  0  0  0  0  0  0  0  0
   -6.4823   -1.2578    0.0000 C   0  0  0  0  0  0  0  0  0  0  0  0
   -6.4475    0.1340    0.0000 C   0  0  0  0  0  0  0  0  0  0  0  0
   -5.2226    0.7502    0.0000 C   0  0  0  0  0  0  0  0  0  0  0  0
   -4.0765    0.0618   -0.0000 N   0  0  0  0  0  0  0  0  0  0  0  0
   -4.0813   -1.2849   -0.0000 C   0  0  0  0  0  0  0  0  0  0  0  0
   -1.5057    0.0036   -0.0000 N   0  0  0  0  0  0  0  0  0  0  0  0
   -0.2168    0.2955   -0.0000 N   0  0  0  0  0  0  0  0  0  0  0  0
    1.7567   -2.0418    0.0000 H   0  0  0  0  0  0  0  0  0  0  0  0
    1.9358    0.0382    0.0000 H   0  0  0  0  0  0  0  0  0  0  0  0
    2.5586   -1.0825    0.0000 H   0  0  0  0  0  0  0  0  0  0  0  0
   -0.2592   -2.9679   -0.0000 H   0  0  0  0  0  0  0  0  0  0  0  0
   -2.0003   -4.0354   -0.0000 H   0  0  0  0  0  0  0  0  0  0  0  0
   -4.1150   -5.2175    0.0000 H   0  0  0  0  0  0  0  0  0  0  0  0
   -6.2391   -3.9573   -0.0000 H   0  0  0  0  0  0  0  0  0  0  0  0
   -7.4407   -1.7618    0.0000 H   0  0  0  0  0  0  0  0  0  0  0  0
   -7.3537    0.7241    0.0000 H   0  0  0  0  0  0  0  0  0  0  0  0
   -5.1020    1.8287   -0.0000 H   0  0  0  0  0  0  0  0  0  0  0  0
  1  2  1  0  0  0  0
  1 17  1  0  0  0  0
  1 18  1  0  0  0  0
  1 19  1  0  0  0  0
  2 16  1  0  0  0  0
  2  3  2  0  0  0  0
  3  4  1  0  0  0  0
  3 20  1  0  0  0  0
  4  5  1  0  0  0  0
  4 15  1  0  0  0  0
  5 14  2  0  0  0  0
  5  6  1  0  0  0  0
  6  7  2  0  0  0  0
  6 21  1  0  0  0  0
  7  8  1  0  0  0  0
  7 22  1  0  0  0  0
  8  9  2  0  0  0  0
  8 23  1  0  0  0  0
  9 14  1  0  0  0  0
  9 10  1  0  0  0  0
 10 11  2  0  0  0  0
 10 24  1  0  0  0  0
 11 12  1  0  0  0  0
 11 25  1  0  0  0  0
 12 13  2  0  0  0  0
 12 26  1  0  0  0  0
 13 14  1  0  0  0  0
 15 16  2  0  0  0  0
M  END
$$$$
