
 OpenBabel03202621332D

 20 21  0  0  1  0  0  0  0  0999 V2000
   -2.1995    3.6502    0.3225 O   0  0  0  0  0  0  0  0  0  0  0  0
   -1.0004    3.4096    0.2864 C   0  0  0  0  0  0  0  0  0  0  0  0
   -0.4738    2.1818    0.4758 O   0  0  0  0  0  0  0  0  0  0  0  0
    0.9461    2.0721    0.3089 C   0  0  0  0  0  0  0  0  0  0  0  0
    1.3288    0.7086   -0.2010 C   0  0  2  0  0  0  0  0  0  0  0  0
    2.7835    0.5199   -0.5138 C   0  0  0  0  0  0  0  0  0  0  0  0
    3.1012   -0.8638   -0.2816 O   0  0  0  0  0  0  0  0  0  0  0  0
    2.0712   -1.4554    0.5305 C   0  0  0  0  0  0  0  0  0  0  0  0
    0.8949   -0.5462    0.4655 C   0  0  2  0  0  0  0  0  0  0  0  0
    0.2939   -0.1851   -0.8666 C   0  0  0  0  0  0  0  0  0  0  0  0
   -0.2422    4.1857    0.1044 H   0  0  0  0  0  0  0  0  0  0  0  0
    1.4142    2.2514    1.2840 H   0  0  0  0  0  0  0  0  0  0  0  0
    1.3130    2.8246   -0.3997 H   0  0  0  0  0  0  0  0  0  0  0  0
    3.4223    1.1265    0.1368 H   0  0  0  0  0  0  0  0  0  0  0  0
    3.0092    0.7618   -1.5566 H   0  0  0  0  0  0  0  0  0  0  0  0
    1.8423   -2.4473    0.1298 H   0  0  0  0  0  0  0  0  0  0  0  0
    2.4479   -1.5600    1.5523 H   0  0  0  0  0  0  0  0  0  0  0  0
    0.2846   -0.5233    1.3552 H   0  0  0  0  0  0  0  0  0  0  0  0
   -0.7504    0.1071   -0.8733 H   0  0  0  0  0  0  0  0  0  0  0  0
    0.5887   -0.7566   -1.7402 H   0  0  0  0  0  0  0  0  0  0  0  0
  1  2  2  0  0  0  0
  2  3  1  0  0  0  0
  2 11  1  0  0  0  0
  3  4  1  0  0  0  0
  4 12  1  0  0  0  0
  4 13  1  0  0  0  0
  5  4  1  6  0  0  0
  5  9  1  0  0  0  0
  5 10  1  0  0  0  0
  5  6  1  0  0  0  0
  6  7  1  0  0  0  0
  6 14  1  0  0  0  0
  6 15  1  0  0  0  0
  7  8  1  0  0  0  0
  8 16  1  0  0  0  0
  8 17  1  0  0  0  0
  9  8  1  0  0  0  0
  9 10  1  0  0  0  0
  9 18  1  1  0  0  0
 10 19  1  0  0  0  0
 10 20  1  0  0  0  0
M  END
$$$$
