
 OpenBabel03202621312D

 31 30  0  0  1  0  0  0  0  0999 V2000
    5.1962   -1.0000    0.0000 C   0  0  0  0  0  0  0  0  0  0  0  0
    5.1962    0.0000    0.0000 C   0  0  1  0  0  0  0  0  0  0  0  0
    6.6326    0.4010   -0.3263 O   0  0  0  0  0  0  0  0  0  0  0  0
    4.9726    1.1170    1.0551 C   0  0  0  0  0  0  0  0  0  0  0  0
    3.9722    0.8357    2.1199 C   0  0  0  0  0  0  0  0  0  0  0  0
    4.2589    0.5256    3.2570 O   0  0  0  0  0  0  0  0  0  0  0  0
    2.7125    0.7451    1.5780 N   0  0  0  0  0  0  0  0  0  0  0  0
    2.3400   -0.6255    1.4164 C   0  0  0  0  0  0  0  0  0  0  0  0
    1.7321   -1.0000    0.0000 C   0  0  0  0  0  0  0  0  0  0  0  0
    0.7321   -1.0000    0.0000 C   0  0  0  0  0  0  0  0  0  0  0  0
    1.2321   -1.8660    0.0000 C   0  0  0  0  0  0  0  0  0  0  0  0
    2.3954   -0.0017   -1.4816 S   0  0  0  0  0  0  0  0  0  0  0  0
    1.2780    1.3757   -1.5674 C   0  0  0  0  0  0  0  0  0  0  0  0
    0.2857    1.3608   -2.2825 O   0  0  0  0  0  0  0  0  0  0  0  0
    5.8425   -1.2041    0.8874 H   0  0  0  0  0  0  0  0  0  0  0  0
    5.7038   -1.2541   -0.9672 H   0  0  0  0  0  0  0  0  0  0  0  0
    5.1962   -2.0700    0.0000 H   0  0  0  0  0  0  0  0  0  0  0  0
    4.7194    0.4379   -0.8766 H   0  0  0  0  0  0  0  0  0  0  0  0
    6.6106    1.0621   -1.0367 H   0  0  0  0  0  0  0  0  0  0  0  0
    4.6296    2.0207    0.5235 H   0  0  0  0  0  0  0  0  0  0  0  0
    5.8992    1.4492    1.5483 H   0  0  0  0  0  0  0  0  0  0  0  0
    2.5704    1.3144    0.7624 H   0  0  0  0  0  0  0  0  0  0  0  0
    3.2007   -1.2805    1.6216 H   0  0  0  0  0  0  0  0  0  0  0  0
    1.6369   -0.8273    2.2447 H   0  0  0  0  0  0  0  0  0  0  0  0
    0.4766    0.0102    0.5139 H   0  0  0  0  0  0  0  0  0  0  0  0
    0.3055   -0.7715   -1.1236 H   0  0  0  0  0  0  0  0  0  0  0  0
   -0.3379   -1.0000    0.0000 H   0  0  0  0  0  0  0  0  0  0  0  0
    1.8025   -2.5233    0.7831 H   0  0  0  0  0  0  0  0  0  0  0  0
    1.7457   -2.4119   -0.9142 H   0  0  0  0  0  0  0  0  0  0  0  0
    0.6971   -2.7926    0.0000 H   0  0  0  0  0  0  0  0  0  0  0  0
    1.5218    2.2498   -0.9420 H   0  0  0  0  0  0  0  0  0  0  0  0
  1 15  1  0  0  0  0
  1 16  1  0  0  0  0
  1 17  1  0  0  0  0
  2  1  1  0  0  0  0
  2  3  1  0  0  0  0
  2  4  1  0  0  0  0
  2 18  1  1  0  0  0
  3 19  1  0  0  0  0
  4  5  1  0  0  0  0
  4 20  1  0  0  0  0
  4 21  1  0  0  0  0
  5  6  2  0  0  0  0
  5  7  1  0  0  0  0
  7  8  1  0  0  0  0
  7 22  1  0  0  0  0
  8  9  1  0  0  0  0
  8 23  1  0  0  0  0
  8 24  1  0  0  0  0
  9 10  1  0  0  0  0
  9 11  1  0  0  0  0
  9 12  1  0  0  0  0
 10 25  1  0  0  0  0
 10 26  1  0  0  0  0
 10 27  1  0  0  0  0
 11 28  1  0  0  0  0
 11 29  1  0  0  0  0
 11 30  1  0  0  0  0
 12 13  1  0  0  0  0
 13 14  2  0  0  0  0
 13 31  1  0  0  0  0
M  END
$$$$
