
 OpenBabel03202621382D

 24 23  0  0  0  0  0  0  0  0999 V2000
    6.0622   -1.5000    0.0000 C   0  0  0  0  0  0  0  0  0  0  0  0
    6.0622   -0.5000    0.0000 N   0  0  0  0  0  0  0  0  0  0  0  0
    5.6548    0.4293   -0.9944 C   0  0  0  0  0  0  0  0  0  0  0  0
    4.2572    0.5377   -0.5942 C   0  0  0  0  0  0  0  0  0  0  0  0
    3.8934    0.2763    0.6993 C   0  0  0  0  0  0  0  0  0  0  0  0
    2.6652   -0.5278    0.9448 C   0  0  0  0  0  0  0  0  0  0  0  0
    1.7321    0.0000    0.0000 N   0  0  0  0  0  0  0  0  0  0  0  0
    1.7321    1.0000    0.0000 C   0  0  0  0  0  0  0  0  0  0  0  0
    0.7060   -0.8207   -0.4811 C   0  0  0  0  0  0  0  0  0  0  0  0
   -0.3049   -0.4654   -1.0728 O   0  0  0  0  0  0  0  0  0  0  0  0
    5.9303   -1.6938    1.0865 H   0  0  0  0  0  0  0  0  0  0  0  0
    7.1232   -1.6854   -0.2746 H   0  0  0  0  0  0  0  0  0  0  0  0
    6.0622   -2.5700    0.0000 H   0  0  0  0  0  0  0  0  0  0  0  0
    6.6727    0.0131    0.6376 H   0  0  0  0  0  0  0  0  0  0  0  0
    5.7893    0.0593   -2.0166 H   0  0  0  0  0  0  0  0  0  0  0  0
    6.1581    1.3988   -0.9063 H   0  0  0  0  0  0  0  0  0  0  0  0
    3.6006    0.3594   -1.4444 H   0  0  0  0  0  0  0  0  0  0  0  0
    4.5654    0.3715    1.5469 H   0  0  0  0  0  0  0  0  0  0  0  0
    2.8446   -1.5996    0.7871 H   0  0  0  0  0  0  0  0  0  0  0  0
    2.2884   -0.3911    1.9656 H   0  0  0  0  0  0  0  0  0  0  0  0
    1.4722    1.1904   -1.0684 H   0  0  0  0  0  0  0  0  0  0  0  0
    0.8351    1.1784    0.6424 H   0  0  0  0  0  0  0  0  0  0  0  0
    1.7321    2.0700    0.0000 H   0  0  0  0  0  0  0  0  0  0  0  0
    0.9084   -1.8896   -0.2941 H   0  0  0  0  0  0  0  0  0  0  0  0
  1  2  1  0  0  0  0
  1 11  1  0  0  0  0
  1 12  1  0  0  0  0
  1 13  1  0  0  0  0
  2  3  1  0  0  0  0
  2 14  1  0  0  0  0
  3  4  1  0  0  0  0
  3 15  1  0  0  0  0
  3 16  1  0  0  0  0
  4  5  2  3  0  0  0
  4 17  1  0  0  0  0
  5  6  1  0  0  0  0
  5 18  1  0  0  0  0
  6  7  1  0  0  0  0
  6 19  1  0  0  0  0
  6 20  1  0  0  0  0
  7  8  1  0  0  0  0
  7  9  1  0  0  0  0
  8 21  1  0  0  0  0
  8 22  1  0  0  0  0
  8 23  1  0  0  0  0
  9 10  2  0  0  0  0
  9 24  1  0  0  0  0
M  END
$$$$
