
 OpenBabel03202621282D

 12 12  0  0  1  0  0  0  0  0999 V2000
    2.2321   -5.8660    0.0000 C   0  0  0  0  0  0  0  0  0  0  0  0
    3.0981   -5.3660    0.0000 S   0  0  0  0  0  0  0  0  0  0  0  0
    3.0981   -4.3660    0.0000 C   0  0  1  0  0  0  0  0  0  0  0  0
    3.9641   -3.8660    0.0000 C   0  0  0  0  0  0  0  0  0  0  0  0
    3.9641   -2.8660    0.0000 O   0  0  0  0  0  0  0  0  0  0  0  0
    2.2321   -3.8660    0.0000 C   0  0  0  0  0  0  0  0  0  0  0  0
    2.2321   -2.8660    0.0000 C   0  0  0  0  0  0  0  0  0  0  0  0
    1.3660   -2.3660    0.0000 C   0  0  0  0  0  0  0  0  0  0  0  0
    1.3660   -1.3660    0.0000 C   0  0  0  0  0  0  0  0  0  0  0  0
    0.5000   -0.8660    0.0000 C   0  0  2  0  0  0  0  0  0  0  0  0
   -0.5000   -0.8660    0.0000 C   0  0  0  0  0  0  0  0  0  0  0  0
    0.0000    0.0000    0.0000 O   0  0  0  0  0  0  0  0  0  0  0  0
  1  2  1  0  0  0  0
  2  3  1  0  0  0  0
  3  4  1  6  0  0  0
  3  6  1  0  0  0  0
  4  5  1  0  0  0  0
  6  7  1  0  0  0  0
  7  8  1  0  0  0  0
  8  9  1  0  0  0  0
 10  9  1  6  0  0  0
 10 11  1  0  0  0  0
 10 12  1  0  0  0  0
 11 12  1  0  0  0  0
M  END
$$$$
