
 OpenBabel03202621352D

 32 34  0  0  1  0  0  0  0  0999 V2000
    6.5299   -1.1258    0.0713 C   0  0  0  0  0  0  0  0  0  0  0  0
    5.1601   -0.5812    0.1195 C   0  0  0  0  0  0  0  0  0  0  0  0
    3.9592   -1.2174   -0.1151 C   0  0  0  0  0  0  0  0  0  0  0  0
    3.0190   -0.2427    0.1078 N   0  0  0  0  0  0  0  0  0  0  0  0
    1.5781   -0.4692    0.1415 C   0  0  0  0  0  0  0  0  0  0  0  0
    0.6427    0.6903    0.1177 C   0  0  0  0  0  0  0  0  0  0  0  0
    0.7748    1.9937   -0.2073 C   0  0  0  0  0  0  0  0  0  0  0  0
   -0.5726    2.6809   -0.2032 C   0  0  0  0  0  0  0  0  0  0  0  0
   -1.4094    1.5066   -0.3088 N   0  0  3  0  0  0  0  0  0  0  0  0
   -2.8190    1.4368   -0.0845 C   0  0  0  0  0  0  0  0  0  0  0  0
   -3.0088   -0.0914   -0.1941 C   0  0  0  0  0  0  0  0  0  0  0  0
   -1.6786   -0.7249    0.2816 C   0  0  1  0  0  0  0  0  0  0  0  0
   -1.1506   -1.6446   -0.6656 O   0  0  0  0  0  0  0  0  0  0  0  0
   -0.7782    0.4858    0.5278 C   0  0  2  0  0  0  0  0  0  0  0  0
    3.6054    0.9062    0.4890 N   0  0  0  0  0  0  0  0  0  0  0  0
    4.9181    0.7193    0.4621 N   0  0  0  0  0  0  0  0  0  0  0  0
    6.5834   -2.0830    0.5995 H   0  0  0  0  0  0  0  0  0  0  0  0
    7.2396   -0.4404    0.5438 H   0  0  0  0  0  0  0  0  0  0  0  0
    6.8439   -1.2857   -0.9662 H   0  0  0  0  0  0  0  0  0  0  0  0
    3.6994   -2.2257   -0.3851 H   0  0  0  0  0  0  0  0  0  0  0  0
    1.4043   -1.0632    1.0470 H   0  0  0  0  0  0  0  0  0  0  0  0
    1.3665   -1.1044   -0.7276 H   0  0  0  0  0  0  0  0  0  0  0  0
    1.6864    2.4880   -0.5109 H   0  0  0  0  0  0  0  0  0  0  0  0
   -0.6901    3.3375   -1.0689 H   0  0  0  0  0  0  0  0  0  0  0  0
   -0.7215    3.2452    0.7240 H   0  0  0  0  0  0  0  0  0  0  0  0
   -3.1043    1.7981    0.9095 H   0  0  0  0  0  0  0  0  0  0  0  0
   -3.4016    1.9660   -0.8423 H   0  0  0  0  0  0  0  0  0  0  0  0
   -3.8474   -0.4170    0.4293 H   0  0  0  0  0  0  0  0  0  0  0  0
   -3.2238   -0.3813   -1.2299 H   0  0  0  0  0  0  0  0  0  0  0  0
   -1.8315   -1.2679    1.2214 H   0  0  0  0  0  0  0  0  0  0  0  0
   -1.6418   -2.4772   -0.5651 H   0  0  0  0  0  0  0  0  0  0  0  0
   -0.8745    0.7535    1.5929 H   0  0  0  0  0  0  0  0  0  0  0  0
  1  2  1  0  0  0  0
  1 17  1  0  0  0  0
  1 18  1  0  0  0  0
  1 19  1  0  0  0  0
  2 16  1  0  0  0  0
  2  3  2  0  0  0  0
  3  4  1  0  0  0  0
  3 20  1  0  0  0  0
  4  5  1  0  0  0  0
  4 15  1  0  0  0  0
  5  6  1  0  0  0  0
  5 21  1  0  0  0  0
  5 22  1  0  0  0  0
  6  7  2  0  0  0  0
  7  8  1  0  0  0  0
  7 23  1  0  0  0  0
  8  9  1  0  0  0  0
  8 24  1  0  0  0  0
  8 25  1  0  0  0  0
  9 14  1  0  0  0  0
  9 10  1  0  0  0  0
 10 11  1  0  0  0  0
 10 26  1  0  0  0  0
 10 27  1  0  0  0  0
 11 12  1  0  0  0  0
 11 28  1  0  0  0  0
 11 29  1  0  0  0  0
 12 13  1  0  0  0  0
 12 14  1  0  0  0  0
 12 30  1  1  0  0  0
 13 31  1  0  0  0  0
 14  6  1  0  0  0  0
 14 32  1  6  0  0  0
 15 16  2  0  0  0  0
M  END
$$$$
