
 OpenBabel03202621382D

 24 24  0  0  1  0  0  0  0  0999 V2000
   -0.8660   -3.5000    0.0000 C   0  0  0  0  0  0  0  0  0  0  0  0
    0.0000   -3.0000    0.0000 S   0  0  0  0  0  0  0  0  0  0  0  0
   -0.0829   -1.3970    0.6465 C   0  0  0  0  0  0  0  0  0  0  0  0
    0.6670   -1.0054    1.5283 O   0  0  0  0  0  0  0  0  0  0  0  0
   -1.0325   -0.6199    0.0294 N   0  0  0  0  0  0  0  0  0  0  0  0
   -1.1202    0.8095    0.3083 C   0  0  2  0  0  0  0  0  0  0  0  0
   -2.4710    1.3683   -0.1376 C   0  0  0  0  0  0  0  0  0  0  0  0
   -2.5576    2.8691    0.1265 C   0  0  0  0  0  0  0  0  0  0  0  0
   -1.2266    3.5804   -0.0900 C   0  0  0  0  0  0  0  0  0  0  0  0
   -0.3886    2.8191   -0.9530 O   0  0  0  0  0  0  0  0  0  0  0  0
    0.0429    1.6016   -0.3325 C   0  0  0  0  0  0  0  0  0  0  0  0
   -0.9312   -3.7612    1.0762 H   0  0  0  0  0  0  0  0  0  0  0  0
   -0.5396   -4.4071   -0.5434 H   0  0  0  0  0  0  0  0  0  0  0  0
   -1.7926   -4.0350    0.0000 H   0  0  0  0  0  0  0  0  0  0  0  0
   -1.4335   -0.9805   -0.8254 H   0  0  0  0  0  0  0  0  0  0  0  0
   -1.0430    0.9251    1.3963 H   0  0  0  0  0  0  0  0  0  0  0  0
   -3.2950    0.8491    0.3675 H   0  0  0  0  0  0  0  0  0  0  0  0
   -2.6070    1.1823   -1.2128 H   0  0  0  0  0  0  0  0  0  0  0  0
   -3.3200    3.2969   -0.5365 H   0  0  0  0  0  0  0  0  0  0  0  0
   -2.9057    3.0607    1.1486 H   0  0  0  0  0  0  0  0  0  0  0  0
   -1.3941    4.5613   -0.5467 H   0  0  0  0  0  0  0  0  0  0  0  0
   -0.7104    3.7520    0.8620 H   0  0  0  0  0  0  0  0  0  0  0  0
    0.5393    1.0127   -1.1121 H   0  0  0  0  0  0  0  0  0  0  0  0
    0.8049    1.8374    0.4198 H   0  0  0  0  0  0  0  0  0  0  0  0
  1  2  1  0  0  0  0
  1 12  1  0  0  0  0
  1 13  1  0  0  0  0
  1 14  1  0  0  0  0
  2  3  1  0  0  0  0
  3  4  2  0  0  0  0
  3  5  1  0  0  0  0
  5 15  1  0  0  0  0
  6  5  1  0  0  0  0
  6  7  1  0  0  0  0
  6 11  1  0  0  0  0
  6 16  1  1  0  0  0
  7  8  1  0  0  0  0
  7 17  1  0  0  0  0
  7 18  1  0  0  0  0
  8  9  1  0  0  0  0
  8 19  1  0  0  0  0
  8 20  1  0  0  0  0
  9 10  1  0  0  0  0
  9 21  1  0  0  0  0
  9 22  1  0  0  0  0
 10 11  1  0  0  0  0
 11 23  1  0  0  0  0
 11 24  1  0  0  0  0
M  END
$$$$
