
 OpenBabel03202621382D

 26 26  0  0  1  0  0  0  0  0999 V2000
   -1.0880   -1.9205   -0.0674 O   0  0  0  0  0  0  0  0  0  0  0  0
   -1.4024   -0.7239   -0.0505 C   0  0  0  0  0  0  0  0  0  0  0  0
   -2.8509   -0.3122   -0.0907 C   0  0  0  0  0  0  0  0  0  0  0  0
   -2.9573    1.1871    0.0469 C   0  0  0  0  0  0  0  0  0  0  0  0
   -2.1266    1.7708   -0.9460 O   0  0  0  0  0  0  0  0  0  0  0  0
   -0.7316    1.6306   -0.6627 C   0  0  0  0  0  0  0  0  0  0  0  0
   -0.3258    0.3656    0.1141 C   0  0  3  0  0  0  0  0  0  0  0  0
    0.9826   -0.2451   -0.2974 N   0  0  0  0  0  0  0  0  0  0  0  0
    2.1551    0.2330    0.5074 C   0  0  2  0  0  0  0  0  0  0  0  0
    3.0057    1.3582   -0.1110 C   0  0  0  0  0  0  0  0  0  0  0  0
    2.2304    2.9513   -0.0806 Cl  0  0  0  0  0  0  0  0  0  0  0  0
    3.1553   -0.9369    0.6040 C   0  0  0  0  0  0  0  0  0  0  0  0
    3.9623   -1.0763    1.5075 O   0  0  0  0  0  0  0  0  0  0  0  0
    3.0911   -1.7675   -0.4652 O   0  0  0  0  0  0  0  0  0  0  0  0
   -3.3973   -0.8137    0.7126 H   0  0  0  0  0  0  0  0  0  0  0  0
   -3.2489   -0.6302   -1.0601 H   0  0  0  0  0  0  0  0  0  0  0  0
   -3.9872    1.5094   -0.1358 H   0  0  0  0  0  0  0  0  0  0  0  0
   -2.6682    1.5416    1.0436 H   0  0  0  0  0  0  0  0  0  0  0  0
   -0.4446    2.5147   -0.0865 H   0  0  0  0  0  0  0  0  0  0  0  0
   -0.2102    1.6857   -1.6239 H   0  0  0  0  0  0  0  0  0  0  0  0
   -0.3212    0.5786    1.1913 H   0  0  0  0  0  0  0  0  0  0  0  0
    0.8319   -1.2385   -0.0343 H   0  0  0  0  0  0  0  0  0  0  0  0
    1.8507    0.4645    1.5346 H   0  0  0  0  0  0  0  0  0  0  0  0
    3.2705    1.1293   -1.1496 H   0  0  0  0  0  0  0  0  0  0  0  0
    3.9465    1.4743    0.4394 H   0  0  0  0  0  0  0  0  0  0  0  0
    2.4036   -1.4609   -1.0997 H   0  0  0  0  0  0  0  0  0  0  0  0
  1  2  2  0  0  0  0
  2  7  1  0  0  0  0
  2  3  1  0  0  0  0
  3  4  1  0  0  0  0
  3 15  1  0  0  0  0
  3 16  1  0  0  0  0
  4  5  1  0  0  0  0
  4 17  1  0  0  0  0
  4 18  1  0  0  0  0
  5  6  1  0  0  0  0
  6  7  1  0  0  0  0
  6 19  1  0  0  0  0
  6 20  1  0  0  0  0
  7  8  1  0  0  0  0
  7 21  1  0  0  0  0
  8  9  1  0  0  0  0
  8 22  1  0  0  0  0
  9 10  1  0  0  0  0
  9 12  1  0  0  0  0
  9 23  1  1  0  0  0
 10 11  1  0  0  0  0
 10 24  1  0  0  0  0
 10 25  1  0  0  0  0
 12 13  2  0  0  0  0
 12 14  1  0  0  0  0
 14 26  1  0  0  0  0
M  END
$$$$
