
 OpenBabel03202621312D

 26 27  0  0  0  0  0  0  0  0999 V2000
   -4.3301   -1.5000    0.0000 C   0  0  0  0  0  0  0  0  0  0  0  0
   -3.4641   -1.0000    0.0000 O   0  0  0  0  0  0  0  0  0  0  0  0
   -3.6216    0.3614   -0.2344 C   0  0  0  0  0  0  0  0  0  0  0  0
   -4.8254    0.9395   -0.0016 N   0  0  0  0  0  0  0  0  0  0  0  0
   -4.8994    2.2511   -0.2671 C   0  0  0  0  0  0  0  0  0  0  0  0
   -3.9039    3.0144   -0.7450 N   0  0  0  0  0  0  0  0  0  0  0  0
   -2.7292    2.3849   -0.9613 C   0  0  0  0  0  0  0  0  0  0  0  0
   -2.5103    1.0560   -0.6793 C   0  0  0  0  0  0  0  0  0  0  0  0
   -1.3570    0.3880   -0.9476 O   0  0  0  0  0  0  0  0  0  0  0  0
   -0.1702    0.7210   -0.3241 C   0  0  0  0  0  0  0  0  0  0  0  0
    0.0703    1.7446    0.5148 C   0  0  0  0  0  0  0  0  0  0  0  0
    1.2861    2.0894    1.0572 O   0  0  0  0  0  0  0  0  0  0  0  0
    2.3954    1.5416    0.3375 C   0  0  0  0  0  0  0  0  0  0  0  0
    2.2577    0.0465    0.1732 C   0  0  0  0  0  0  0  0  0  0  0  0
    0.9675   -0.2249   -0.5506 C   0  0  0  0  0  0  0  0  0  0  0  0
    0.8255   -1.2318   -1.2428 O   0  0  0  0  0  0  0  0  0  0  0  0
   -4.3647   -1.8067    1.0675 H   0  0  0  0  0  0  0  0  0  0  0  0
   -4.0217   -2.3886   -0.5877 H   0  0  0  0  0  0  0  0  0  0  0  0
   -5.2567   -2.0350    0.0000 H   0  0  0  0  0  0  0  0  0  0  0  0
   -5.8505    2.7372   -0.0809 H   0  0  0  0  0  0  0  0  0  0  0  0
   -1.9502    3.0089   -1.3894 H   0  0  0  0  0  0  0  0  0  0  0  0
   -0.6781    2.4385    0.8760 H   0  0  0  0  0  0  0  0  0  0  0  0
    2.4703    2.0478   -0.6341 H   0  0  0  0  0  0  0  0  0  0  0  0
    3.3062    1.7776    0.8993 H   0  0  0  0  0  0  0  0  0  0  0  0
    2.2204   -0.4620    1.1423 H   0  0  0  0  0  0  0  0  0  0  0  0
    3.0915   -0.3466   -0.4160 H   0  0  0  0  0  0  0  0  0  0  0  0
  1  2  1  0  0  0  0
  1 17  1  0  0  0  0
  1 18  1  0  0  0  0
  1 19  1  0  0  0  0
  2  3  1  0  0  0  0
  3  8  2  0  0  0  0
  3  4  1  0  0  0  0
  4  5  2  0  0  0  0
  5  6  1  0  0  0  0
  5 20  1  0  0  0  0
  6  7  2  0  0  0  0
  7  8  1  0  0  0  0
  7 21  1  0  0  0  0
  8  9  1  0  0  0  0
  9 10  1  0  0  0  0
 10 15  1  0  0  0  0
 10 11  2  0  0  0  0
 11 12  1  0  0  0  0
 11 22  1  0  0  0  0
 12 13  1  0  0  0  0
 13 14  1  0  0  0  0
 13 23  1  0  0  0  0
 13 24  1  0  0  0  0
 14 15  1  0  0  0  0
 14 25  1  0  0  0  0
 14 26  1  0  0  0  0
 15 16  2  0  0  0  0
M  END
$$$$
