
 OpenBabel03202621312D

 24 23  0  0  0  0  0  0  0  0999 V2000
    4.5000   -0.8660    0.0000 C   0  0  0  0  0  0  0  0  0  0  0  0
    4.0000    0.0000    0.0000 C   0  0  0  0  0  0  0  0  0  0  0  0
    3.0000    0.0000    0.0000 C   0  0  0  0  0  0  0  0  0  0  0  0
    2.1340   -0.5000    0.0000 C   0  0  0  0  0  0  0  0  0  0  0  0
    3.0000   -1.0000    0.0000 C   0  0  0  0  0  0  0  0  0  0  0  0
    2.7697    1.0212    1.1313 O   0  0  0  0  0  0  0  0  0  0  0  0
    1.5004    1.3662    0.9707 C   0  0  0  0  0  0  0  0  0  0  0  0
    0.8693    2.3406    1.3395 O   0  0  0  0  0  0  0  0  0  0  0  0
    1.0000    0.0000    0.0000 S   0  0  0  0  0  0  0  0  0  0  0  0
    0.0000    0.0000    0.0000 C   0  0  0  0  0  0  0  0  0  0  0  0
    5.2280   -0.7426   -0.8738 H   0  0  0  0  0  0  0  0  0  0  0  0
    5.1773   -0.7829    0.9183 H   0  0  0  0  0  0  0  0  0  0  0  0
    5.0350   -1.7926    0.0000 H   0  0  0  0  0  0  0  0  0  0  0  0
    4.5695    0.7603    0.6314 H   0  0  0  0  0  0  0  0  0  0  0  0
    4.2571    0.6622   -0.8943 H   0  0  0  0  0  0  0  0  0  0  0  0
    2.2409   -0.0077   -1.4132 H   0  0  0  0  0  0  0  0  0  0  0  0
    1.7782   -1.5210   -1.0684 H   0  0  0  0  0  0  0  0  0  0  0  0
    1.2074   -1.0350    0.0000 H   0  0  0  0  0  0  0  0  0  0  0  0
    3.1058   -1.4957    1.2147 H   0  0  0  0  0  0  0  0  0  0  0  0
    3.3341   -1.5394   -1.2048 H   0  0  0  0  0  0  0  0  0  0  0  0
    3.0000   -2.0700    0.0000 H   0  0  0  0  0  0  0  0  0  0  0  0
   -0.1958    0.8781   -0.6605 H   0  0  0  0  0  0  0  0  0  0  0  0
   -0.3126   -0.8664   -0.6579 H   0  0  0  0  0  0  0  0  0  0  0  0
   -1.0700    0.0000    0.0000 H   0  0  0  0  0  0  0  0  0  0  0  0
  1  2  1  0  0  0  0
  1 11  1  0  0  0  0
  1 12  1  0  0  0  0
  1 13  1  0  0  0  0
  2  3  1  0  0  0  0
  2 14  1  0  0  0  0
  2 15  1  0  0  0  0
  3  4  1  0  0  0  0
  3  5  1  0  0  0  0
  3  6  1  0  0  0  0
  4 16  1  0  0  0  0
  4 17  1  0  0  0  0
  4 18  1  0  0  0  0
  5 19  1  0  0  0  0
  5 20  1  0  0  0  0
  5 21  1  0  0  0  0
  6  7  1  0  0  0  0
  7  8  2  0  0  0  0
  7  9  1  0  0  0  0
  9 10  1  0  0  0  0
 10 22  1  0  0  0  0
 10 23  1  0  0  0  0
 10 24  1  0  0  0  0
M  END
$$$$
