
 OpenBabel03202621322D

 22 23  0  0  0  0  0  0  0  0999 V2000
    1.4868    4.6387    0.0000 O   0  0  0  0  0  0  0  0  0  0  0  0
    0.4302    4.0217   -0.0000 C   0  0  0  0  0  0  0  0  0  0  0  0
    0.2405    2.3021    0.0000 S   0  0  0  0  0  0  0  0  0  0  0  0
    1.7914    1.3942    0.0000 C   0  0  0  0  0  0  0  0  0  0  0  0
    3.0322    2.0656    0.0000 C   0  0  0  0  0  0  0  0  0  0  0  0
    4.2489    1.3768    0.0000 C   0  0  0  0  0  0  0  0  0  0  0  0
    4.2467   -0.0036    0.0000 C   0  0  0  0  0  0  0  0  0  0  0  0
    5.4076   -0.6709    0.0000 F   0  0  0  0  0  0  0  0  0  0  0  0
    3.0514   -0.7071    0.0000 C   0  0  0  0  0  0  0  0  0  0  0  0
    1.8023   -0.0424    0.0000 C   0  0  0  0  0  0  0  0  0  0  0  0
    0.5858   -0.9047    0.0000 C   0  0  0  0  0  0  0  0  0  0  0  0
    0.5147   -2.3348    0.0000 C   0  0  0  0  0  0  0  0  0  0  0  0
   -0.8222   -2.6545    0.0000 C   0  0  0  0  0  0  0  0  0  0  0  0
   -1.4781   -1.4679    0.0000 N   0  0  0  0  0  0  0  0  0  0  0  0
   -0.6624   -0.4156    0.0000 N   0  0  0  0  0  0  0  0  0  0  0  0
   -0.5319    4.5589   -0.0000 H   0  0  0  0  0  0  0  0  0  0  0  0
    3.0986    3.1482   -0.0000 H   0  0  0  0  0  0  0  0  0  0  0  0
    5.1924    1.9140   -0.0000 H   0  0  0  0  0  0  0  0  0  0  0  0
    3.1280   -1.7898    0.0000 H   0  0  0  0  0  0  0  0  0  0  0  0
    1.3243   -3.0479    0.0000 H   0  0  0  0  0  0  0  0  0  0  0  0
   -1.3499   -3.5956   -0.0000 H   0  0  0  0  0  0  0  0  0  0  0  0
   -2.4768   -1.2928   -0.0000 H   0  0  0  0  0  0  0  0  0  0  0  0
  1  2  2  0  0  0  0
  2  3  1  0  0  0  0
  2 16  1  0  0  0  0
  3  4  1  0  0  0  0
  4 10  2  0  0  0  0
  4  5  1  0  0  0  0
  5  6  2  0  0  0  0
  5 17  1  0  0  0  0
  6  7  1  0  0  0  0
  6 18  1  0  0  0  0
  7  8  1  0  0  0  0
  7  9  2  0  0  0  0
  9 10  1  0  0  0  0
  9 19  1  0  0  0  0
 10 11  1  0  0  0  0
 11 15  2  0  0  0  0
 11 12  1  0  0  0  0
 12 13  2  0  0  0  0
 12 20  1  0  0  0  0
 13 14  1  0  0  0  0
 13 21  1  0  0  0  0
 14 15  1  0  0  0  0
 14 22  1  0  0  0  0
M  END
$$$$
