
 OpenBabel03202621302D

 20 20  0  0  0  0  0  0  0  0999 V2000
   -0.8660   -2.5000    0.0000 C   0  0  0  0  0  0  0  0  0  0  0  0
    0.0000   -2.0000    0.0000 C   0  0  0  0  0  0  0  0  0  0  0  0
    0.0000   -1.0000    0.0000 C   0  0  0  0  0  0  0  0  0  0  0  0
   -1.0000   -1.0000    0.0000 N   0  0  0  0  0  0  0  0  0  0  0  0
   -2.2775   -0.0003    0.0000 C   0  0  0  0  0  0  0  0  0  0  0  0
   -3.3954   -0.5230   -0.0000 O   0  0  0  0  0  0  0  0  0  0  0  0
    0.0000    0.0000    0.0000 C   0  0  0  0  0  0  0  0  0  0  0  0
    1.3439    0.3495   -0.0000 O   0  0  0  0  0  0  0  0  0  0  0  0
    1.0000   -1.0000    0.0000 C   0  0  0  0  0  0  0  0  0  0  0  0
   -2.0616   -2.4587    0.0000 H   0  0  0  0  0  0  0  0  0  0  0  0
   -0.8034   -3.7053    0.0000 H   0  0  0  0  0  0  0  0  0  0  0  0
   -1.7926   -3.0350    0.0000 H   0  0  0  0  0  0  0  0  0  0  0  0
    0.4327   -3.0615   -0.0000 H   0  0  0  0  0  0  0  0  0  0  0  0
    0.9874   -2.7076    0.0000 H   0  0  0  0  0  0  0  0  0  0  0  0
   -2.0140   -1.2115   -0.0000 H   0  0  0  0  0  0  0  0  0  0  0  0
   -2.2072    1.1038    0.0000 H   0  0  0  0  0  0  0  0  0  0  0  0
   -0.6906    0.8692   -0.0000 H   0  0  0  0  0  0  0  0  0  0  0  0
    0.1803    1.1382    0.0000 H   0  0  0  0  0  0  0  0  0  0  0  0
    1.9691   -1.7259   -0.0000 H   0  0  0  0  0  0  0  0  0  0  0  0
    2.1394   -0.8169    0.0000 H   0  0  0  0  0  0  0  0  0  0  0  0
  1  2  1  0  0  0  0
  1 10  1  0  0  0  0
  1 11  1  0  0  0  0
  1 12  1  0  0  0  0
  2  3  1  0  0  0  0
  2 13  1  0  0  0  0
  2 14  1  0  0  0  0
  3  9  1  0  0  0  0
  3  4  1  0  0  0  0
  3  7  1  0  0  0  0
  4  5  1  0  0  0  0
  4 15  1  0  0  0  0
  5  6  2  0  0  0  0
  5 16  1  0  0  0  0
  7  8  1  0  0  0  0
  7 17  1  0  0  0  0
  7 18  1  0  0  0  0
  8  9  1  0  0  0  0
  9 19  1  0  0  0  0
  9 20  1  0  0  0  0
M  END
$$$$
