
 OpenBabel03202621362D

 41 42  0  0  1  0  0  0  0  0999 V2000
    2.5981   -0.5000    0.0000 C   0  0  0  0  0  0  0  0  0  0  0  0
    1.7321    0.0000    0.0000 O   0  0  0  0  0  0  0  0  0  0  0  0
    1.2958   -0.7639   -1.0427 C   0  0  0  0  0  0  0  0  0  0  0  0
    1.4213   -2.2814   -1.0034 C   0  0  0  0  0  0  0  0  0  0  0  0
    0.5038   -3.0623   -1.6303 C   0  0  0  0  0  0  0  0  0  0  0  0
   -0.4779   -2.3352   -2.2529 C   0  0  0  0  0  0  0  0  0  0  0  0
   -0.6065   -0.9036   -1.9026 C   0  0  0  0  0  0  0  0  0  0  0  0
   -1.3984   -0.7202   -0.7026 C   0  0  1  0  0  0  0  0  0  0  0  0
   -0.5542   -1.0401    0.5989 O   0  0  0  0  0  0  0  0  0  0  0  0
   -2.5981   -0.5000    0.0000 C   0  0  2  0  0  0  0  0  0  0  0  0
   -3.8876   -0.4025   -0.8801 O   0  0  0  0  0  0  0  0  0  0  0  0
   -5.1222   -0.5720   -0.1671 C   0  0  0  0  0  0  0  0  0  0  0  0
   -5.5349   -1.7577    0.2964 C   0  0  0  0  0  0  0  0  0  0  0  0
   -6.7915   -2.0560    0.7631 O   0  0  0  0  0  0  0  0  0  0  0  0
   -7.7850   -1.1834    0.1793 C   0  0  0  0  0  0  0  0  0  0  0  0
   -7.3431    0.2327    0.0204 C   0  0  0  0  0  0  0  0  0  0  0  0
   -6.0498    0.5723   -0.1408 C   0  0  0  0  0  0  0  0  0  0  0  0
   -5.5078    1.6985   -0.2413 O   0  5  0  0  0  0  0  0  0  0  0  0
   -2.5981   -1.5000    0.0000 C   0  0  0  0  0  0  0  0  0  0  0  0
   -2.8836   -2.3941   -0.8230 O   0  0  0  0  0  0  0  0  0  0  0  0
   -2.4785   -2.0737    1.2836 O   0  0  0  0  0  0  0  0  0  0  0  0
    0.3289    0.0807   -1.5019 C   0  0  0  0  0  0  0  0  0  0  0  0
    0.0000    1.0000    0.0000 O   0  0  0  0  0  0  0  0  0  0  0  0
   -0.8660    1.5000    0.0000 C   0  0  0  0  0  0  0  0  0  0  0  0
    3.2346    0.1766   -0.6428 H   0  0  0  0  0  0  0  0  0  0  0  0
    2.9372   -0.2558    1.0321 H   0  0  0  0  0  0  0  0  0  0  0  0
    3.5247   -1.0350    0.0000 H   0  0  0  0  0  0  0  0  0  0  0  0
    2.0448   -2.7613   -0.2447 H   0  0  0  0  0  0  0  0  0  0  0  0
    0.4348   -4.1289   -1.4555 H   0  0  0  0  0  0  0  0  0  0  0  0
   -1.3752   -2.8900   -2.5412 H   0  0  0  0  0  0  0  0  0  0  0  0
   -1.6461    0.2290   -1.2677 H   0  0  0  0  0  0  0  0  0  0  0  0
    0.0589   -0.3013    0.7883 H   0  0  0  0  0  0  0  0  0  0  0  0
   -2.5981    0.5700    0.0000 H   0  0  0  0  0  0  0  0  0  0  0  0
   -4.9434   -2.6763    0.3368 H   0  0  0  0  0  0  0  0  0  0  0  0
   -8.0821   -1.6142   -0.7862 H   0  0  0  0  0  0  0  0  0  0  0  0
   -8.6687   -1.2513    0.8402 H   0  0  0  0  0  0  0  0  0  0  0  0
   -8.1089    1.0023    0.0298 H   0  0  0  0  0  0  0  0  0  0  0  0
   -1.7548   -1.5910    1.7436 H   0  0  0  0  0  0  0  0  0  0  0  0
   -0.5462    2.4167   -0.5373 H   0  0  0  0  0  0  0  0  0  0  0  0
   -0.9131    1.7648    1.0763 H   0  0  0  0  0  0  0  0  0  0  0  0
   -1.7926    2.0350    0.0000 H   0  0  0  0  0  0  0  0  0  0  0  0
  1  2  1  0  0  0  0
  1 25  1  0  0  0  0
  1 26  1  0  0  0  0
  1 27  1  0  0  0  0
  2  3  1  0  0  0  0
  3 22  2  0  0  0  0
  3  4  1  0  0  0  0
  4  5  2  0  0  0  0
  4 28  1  0  0  0  0
  5  6  1  0  0  0  0
  5 29  1  0  0  0  0
  6  7  2  0  0  0  0
  6 30  1  0  0  0  0
  7  8  1  0  0  0  0
  7 22  1  0  0  0  0
  8  9  1  0  0  0  0
  8 10  1  0  0  0  0
  8 31  1  6  0  0  0
  9 32  1  0  0  0  0
 10 11  1  0  0  0  0
 10 19  1  0  0  0  0
 10 33  1  6  0  0  0
 11 12  1  0  0  0  0
 12 17  1  0  0  0  0
 12 13  2  0  0  0  0
 13 14  1  0  0  0  0
 13 34  1  0  0  0  0
 14 15  1  0  0  0  0
 15 16  1  0  0  0  0
 15 35  1  0  0  0  0
 15 36  1  0  0  0  0
 16 17  2  0  0  0  0
 16 37  1  0  0  0  0
 17 18  1  0  0  0  0
 19 20  2  0  0  0  0
 19 21  1  0  0  0  0
 21 38  1  0  0  0  0
 22 23  1  0  0  0  0
 23 24  1  0  0  0  0
 24 39  1  0  0  0  0
 24 40  1  0  0  0  0
 24 41  1  0  0  0  0
M  CHG  1  18  -1
M  END
$$$$
