
 OpenBabel03202621322D

 27 28  0  0  1  0  0  0  0  0999 V2000
   -1.8781   -3.1622    0.0000 C   0  0  0  0  0  0  0  0  0  0  0  0
   -0.9000   -2.9543    0.0000 S   0  0  0  0  0  0  0  0  0  0  0  0
   -0.3074   -1.5812    0.8729 C   0  0  0  0  0  0  0  0  0  0  0  0
    0.8840   -1.7022    2.0322 S   0  0  0  0  0  0  0  0  0  0  0  0
   -1.0356   -0.4536    0.6165 N   0  0  0  0  0  0  0  0  0  0  0  0
   -0.5937    0.6742   -0.2051 C   0  0  2  0  0  0  0  0  0  0  0  0
   -1.4635    1.8793    0.2108 C   0  0  0  0  0  0  0  0  0  0  0  0
   -0.6393    3.1468    0.0086 C   0  0  0  0  0  0  0  0  0  0  0  0
    0.7551    2.6204    0.0773 C   0  0  0  0  0  0  0  0  0  0  0  0
    1.9179    3.3751    0.1613 C   0  0  0  0  0  0  0  0  0  0  0  0
    3.1430    2.7250    0.0599 C   0  0  0  0  0  0  0  0  0  0  0  0
    3.1944    1.3418   -0.1680 C   0  0  0  0  0  0  0  0  0  0  0  0
    2.0158    0.5973   -0.2651 C   0  0  0  0  0  0  0  0  0  0  0  0
    0.7951    1.2286   -0.0804 C   0  0  0  0  0  0  0  0  0  0  0  0
   -2.1139   -3.0898    1.0828 H   0  0  0  0  0  0  0  0  0  0  0  0
   -1.8214   -4.2420   -0.2368 H   0  0  0  0  0  0  0  0  0  0  0  0
   -2.9247   -3.3847    0.0000 H   0  0  0  0  0  0  0  0  0  0  0  0
   -1.9502   -0.7153    0.2783 H   0  0  0  0  0  0  0  0  0  0  0  0
   -0.7734    0.4124   -1.2568 H   0  0  0  0  0  0  0  0  0  0  0  0
   -2.4141    1.9065   -0.3335 H   0  0  0  0  0  0  0  0  0  0  0  0
   -1.7248    1.8054    1.2774 H   0  0  0  0  0  0  0  0  0  0  0  0
   -0.8482    3.8848    0.7869 H   0  0  0  0  0  0  0  0  0  0  0  0
   -0.8300    3.5807   -0.9793 H   0  0  0  0  0  0  0  0  0  0  0  0
    1.8736    4.4528    0.2855 H   0  0  0  0  0  0  0  0  0  0  0  0
    4.0673    3.2931    0.1287 H   0  0  0  0  0  0  0  0  0  0  0  0
    4.1569    0.8500   -0.2787 H   0  0  0  0  0  0  0  0  0  0  0  0
    2.0790   -0.4638   -0.4895 H   0  0  0  0  0  0  0  0  0  0  0  0
  1  2  1  0  0  0  0
  1 15  1  0  0  0  0
  1 16  1  0  0  0  0
  1 17  1  0  0  0  0
  2  3  1  0  0  0  0
  3  4  2  0  0  0  0
  3  5  1  0  0  0  0
  5 18  1  0  0  0  0
  6  5  1  0  0  0  0
  6  7  1  0  0  0  0
  6 14  1  0  0  0  0
  6 19  1  1  0  0  0
  7  8  1  0  0  0  0
  7 20  1  0  0  0  0
  7 21  1  0  0  0  0
  8  9  1  0  0  0  0
  8 22  1  0  0  0  0
  8 23  1  0  0  0  0
  9 14  2  0  0  0  0
  9 10  1  0  0  0  0
 10 11  2  0  0  0  0
 10 24  1  0  0  0  0
 11 12  1  0  0  0  0
 11 25  1  0  0  0  0
 12 13  2  0  0  0  0
 12 26  1  0  0  0  0
 13 14  1  0  0  0  0
 13 27  1  0  0  0  0
M  END
$$$$
