
 OpenBabel03202621332D

 19 18  0  0  1  0  0  0  0  0999 V2000
    1.9580    0.7976   -0.2948 N   0  0  0  0  0  0  0  0  0  0  0  0
    1.4146    2.0727    0.1477 C   0  0  0  0  0  0  0  0  0  0  0  0
    0.0221    2.3547   -0.4138 C   0  0  0  0  0  0  0  0  0  0  0  0
   -1.1319    1.5219    0.1539 C   0  0  2  0  0  0  0  0  0  0  0  0
   -2.3356    2.1679   -0.3207 O   0  0  0  0  0  0  0  0  0  0  0  0
   -3.5252    1.6382    0.0409 C   0  0  0  0  0  0  0  0  0  0  0  0
   -4.6023    2.1324   -0.2496 O   0  0  0  0  0  0  0  0  0  0  0  0
   -1.0667    0.0589   -0.2928 C   0  0  0  0  0  0  0  0  0  0  0  0
   -1.7149   -0.4623   -1.1842 O   0  0  0  0  0  0  0  0  0  0  0  0
   -0.2800   -0.7041    0.4975 O   0  0  0  0  0  0  0  0  0  0  0  0
    1.5123    0.0378    0.2271 H   0  0  0  0  0  0  0  0  0  0  0  0
    2.9472    0.7464   -0.0502 H   0  0  0  0  0  0  0  0  0  0  0  0
    2.0899    2.8621   -0.2028 H   0  0  0  0  0  0  0  0  0  0  0  0
    1.4085    2.1185    1.2417 H   0  0  0  0  0  0  0  0  0  0  0  0
    0.0381    2.2646   -1.5089 H   0  0  0  0  0  0  0  0  0  0  0  0
   -0.1993    3.4149   -0.2212 H   0  0  0  0  0  0  0  0  0  0  0  0
   -1.1430    1.5671    1.2492 H   0  0  0  0  0  0  0  0  0  0  0  0
   -3.4282    0.7260    0.6487 H   0  0  0  0  0  0  0  0  0  0  0  0
   -0.3719   -1.6010    0.1043 H   0  0  0  0  0  0  0  0  0  0  0  0
  1  2  1  0  0  0  0
  1 11  1  0  0  0  0
  1 12  1  0  0  0  0
  2  3  1  0  0  0  0
  2 13  1  0  0  0  0
  2 14  1  0  0  0  0
  3 15  1  0  0  0  0
  3 16  1  0  0  0  0
  4  3  1  0  0  0  0
  4  5  1  0  0  0  0
  4  8  1  0  0  0  0
  4 17  1  6  0  0  0
  5  6  1  0  0  0  0
  6  7  2  0  0  0  0
  6 18  1  0  0  0  0
  8  9  2  0  0  0  0
  8 10  1  0  0  0  0
 10 19  1  0  0  0  0
M  END
$$$$
