
 OpenBabel03202621382D

 62 64  0  0  1  0  0  0  0  0999 V2000
   -1.1890   -6.2299    0.0918 C   0  0  0  0  0  0  0  0  0  0  0  0
    0.0700   -5.4765   -0.1857 C   0  0  0  0  0  0  0  0  0  0  0  0
    1.1640   -6.0390   -0.2673 O   0  0  0  0  0  0  0  0  0  0  0  0
   -0.0297   -3.9901   -0.1695 C   0  0  0  0  0  0  0  0  0  0  0  0
   -1.0738   -3.3263   -1.0434 C   0  0  0  0  0  0  0  0  0  0  0  0
   -1.4471   -3.8878   -2.0732 O   0  0  0  0  0  0  0  0  0  0  0  0
   -1.5604   -1.8518   -0.7332 C   0  0  1  0  0  0  0  0  0  0  0  0
   -3.0292   -1.7135   -0.7164 C   0  0  0  0  0  0  0  0  0  0  0  0
   -3.6567   -1.6715   -1.7798 O   0  0  0  0  0  0  0  0  0  0  0  0
   -3.6986   -1.7403    0.6208 C   0  0  2  0  0  0  0  0  0  0  0  0
   -3.7378   -3.2426    0.9518 C   0  0  0  0  0  0  0  0  0  0  0  0
   -4.7136   -4.0273    0.0937 C   0  0  0  0  0  0  0  0  0  0  0  0
   -4.2740   -5.3817    0.0731 O   0  0  0  0  0  0  0  0  0  0  0  0
   -4.9700   -0.9257    0.6243 C   0  0  0  0  0  0  0  0  0  0  0  0
   -5.9690   -1.4919    1.0878 O   0  0  0  0  0  0  0  0  0  0  0  0
   -4.9125    0.5859    0.2375 C   0  0  0  0  0  0  0  0  0  0  0  0
   -3.6704    1.1862   -0.0304 C   0  0  0  0  0  0  0  0  0  0  0  0
   -3.4276    2.5569   -0.1370 C   0  0  0  0  0  0  0  0  0  0  0  0
   -4.5111    3.3892   -0.0921 C   0  0  0  0  0  0  0  0  0  0  0  0
   -5.7850    2.8068   -0.0012 C   0  0  0  0  0  0  0  0  0  0  0  0
   -6.0474    1.4108    0.1595 C   0  0  0  0  0  0  0  0  0  0  0  0
   -7.2545    1.0142    0.1991 O   0  5  0  0  0  0  0  0  0  0  0  0
   -1.0071   -1.2003    0.4879 N   0  0  0  0  0  0  0  0  0  0  0  0
    0.3205   -1.3761    0.3201 C   0  0  0  0  0  0  0  0  0  0  0  0
    1.0140   -1.9538    1.1269 O   0  0  0  0  0  0  0  0  0  0  0  0
    0.5994   -0.6615   -0.8773 N   0  0  0  0  0  0  0  0  0  0  0  0
    0.0435    0.5537   -0.5789 C   0  0  0  0  0  0  0  0  0  0  0  0
    0.7571    1.6637   -0.4380 C   0  0  0  0  0  0  0  0  0  0  0  0
    2.1651    1.6029   -0.2086 C   0  0  0  0  0  0  0  0  0  0  0  0
    2.9356    2.7303   -0.0089 C   0  0  0  0  0  0  0  0  0  0  0  0
    4.1332    2.2434    0.2148 N   0  0  0  0  0  0  0  0  0  0  0  0
    3.9621    0.8896    0.0000 N   0  0  0  0  0  0  0  0  0  0  0  0
    4.8281    0.3896    0.0000 C   0  0  0  0  0  0  0  0  0  0  0  0
    3.0485    0.4828    0.0000 C   0  0  0  0  0  0  0  0  0  0  0  0
    2.8406   -0.4953    0.0000 C   0  0  0  0  0  0  0  0  0  0  0  0
   -0.8964    0.1978    0.5502 C   0  0  0  0  0  0  0  0  0  0  0  0
   -1.1169    0.9125    1.5042 O   0  0  0  0  0  0  0  0  0  0  0  0
   -1.6232   -5.8556    1.0239 H   0  0  0  0  0  0  0  0  0  0  0  0
   -0.9646   -7.2901    0.2038 H   0  0  0  0  0  0  0  0  0  0  0  0
   -1.8767   -6.0851   -0.7406 H   0  0  0  0  0  0  0  0  0  0  0  0
    0.9563   -3.6241   -0.4851 H   0  0  0  0  0  0  0  0  0  0  0  0
   -0.2376   -3.7623    0.8794 H   0  0  0  0  0  0  0  0  0  0  0  0
   -1.2991   -1.2895   -1.6472 H   0  0  0  0  0  0  0  0  0  0  0  0
   -3.0830   -1.2859    1.4051 H   0  0  0  0  0  0  0  0  0  0  0  0
   -2.7359   -3.6801    0.8183 H   0  0  0  0  0  0  0  0  0  0  0  0
   -3.9372   -3.4205    2.0137 H   0  0  0  0  0  0  0  0  0  0  0  0
   -5.7096   -3.9854    0.5341 H   0  0  0  0  0  0  0  0  0  0  0  0
   -4.7644   -3.6768   -0.9407 H   0  0  0  0  0  0  0  0  0  0  0  0
   -5.0793   -5.9136   -0.0480 H   0  0  0  0  0  0  0  0  0  0  0  0
   -2.8316    0.5723   -0.2152 H   0  0  0  0  0  0  0  0  0  0  0  0
   -2.4326    2.9491   -0.2549 H   0  0  0  0  0  0  0  0  0  0  0  0
   -4.3985    4.4613   -0.1601 H   0  0  0  0  0  0  0  0  0  0  0  0
   -6.6364    3.4720   -0.0605 H   0  0  0  0  0  0  0  0  0  0  0  0
    1.4133   -0.7150   -1.4653 H   0  0  0  0  0  0  0  0  0  0  0  0
    0.2637    2.5812   -0.1201 H   0  0  0  0  0  0  0  0  0  0  0  0
    2.7357    3.7936    0.0036 H   0  0  0  0  0  0  0  0  0  0  0  0
    4.8655   -0.2624   -0.9309 H   0  0  0  0  0  0  0  0  0  0  0  0
    5.6348    1.1126   -0.3385 H   0  0  0  0  0  0  0  0  0  0  0  0
    5.7547   -0.1454    0.0000 H   0  0  0  0  0  0  0  0  0  0  0  0
    3.1796   -0.8889   -1.0005 H   0  0  0  0  0  0  0  0  0  0  0  0
    3.2664   -0.8859    0.9706 H   0  0  0  0  0  0  0  0  0  0  0  0
    2.6181   -1.5419    0.0000 H   0  0  0  0  0  0  0  0  0  0  0  0
  1  2  1  0  0  0  0
  1 38  1  0  0  0  0
  1 39  1  0  0  0  0
  1 40  1  0  0  0  0
  2  3  2  0  0  0  0
  2  4  1  0  0  0  0
  4  5  1  0  0  0  0
  4 41  1  0  0  0  0
  4 42  1  0  0  0  0
  5  6  2  0  0  0  0
  7  5  1  0  0  0  0
  7  8  1  0  0  0  0
  7 23  1  0  0  0  0
  7 43  1  6  0  0  0
  8  9  2  0  0  0  0
  8 10  1  0  0  0  0
 10 11  1  0  0  0  0
 10 14  1  0  0  0  0
 10 44  1  1  0  0  0
 11 12  1  0  0  0  0
 11 45  1  0  0  0  0
 11 46  1  0  0  0  0
 12 13  1  0  0  0  0
 12 47  1  0  0  0  0
 12 48  1  0  0  0  0
 13 49  1  0  0  0  0
 14 15  2  0  0  0  0
 14 16  1  0  0  0  0
 16 21  2  0  0  0  0
 16 17  1  0  0  0  0
 17 18  2  0  0  0  0
 17 50  1  0  0  0  0
 18 19  1  0  0  0  0
 18 51  1  0  0  0  0
 19 20  2  0  0  0  0
 19 52  1  0  0  0  0
 20 21  1  0  0  0  0
 20 53  1  0  0  0  0
 21 22  1  0  0  0  0
 23 36  1  0  0  0  0
 23 24  1  0  0  0  0
 24 25  2  0  0  0  0
 24 26  1  0  0  0  0
 26 27  1  0  0  0  0
 26 54  1  0  0  0  0
 27 28  2  3  0  0  0
 27 36  1  0  0  0  0
 28 29  1  0  0  0  0
 28 55  1  0  0  0  0
 29 34  2  0  0  0  0
 29 30  1  0  0  0  0
 30 31  2  0  0  0  0
 30 56  1  0  0  0  0
 31 32  1  0  0  0  0
 32 33  1  0  0  0  0
 32 34  1  0  0  0  0
 33 57  1  0  0  0  0
 33 58  1  0  0  0  0
 33 59  1  0  0  0  0
 34 35  1  0  0  0  0
 35 60  1  0  0  0  0
 35 61  1  0  0  0  0
 35 62  1  0  0  0  0
 36 37  2  0  0  0  0
M  CHG  1  22  -1
M  END
$$$$
