
 OpenBabel03202621382D

 37 38  0  0  1  0  0  0  0  0999 V2000
    2.5981    0.5000    0.0000 C   0  0  0  0  0  0  0  0  0  0  0  0
    2.5981    1.5000    0.0000 O   0  0  0  0  0  0  0  0  0  0  0  0
    1.5071    2.0673    0.6275 C   0  0  0  0  0  0  0  0  0  0  0  0
    1.6150    3.1764    1.1540 O   0  0  0  0  0  0  0  0  0  0  0  0
    0.1145    1.3643    0.5123 C   0  0  1  0  0  0  0  0  0  0  0  0
   -0.9048    2.0509    1.3021 N   0  0  0  0  0  0  0  0  0  0  0  0
   -2.2429    1.7668    1.2215 C   0  0  0  0  0  0  0  0  0  0  0  0
   -3.0608    2.2326    2.0014 O   0  0  0  0  0  0  0  0  0  0  0  0
   -2.4868    0.8642    0.2280 O   0  0  0  0  0  0  0  0  0  0  0  0
   -3.7548    0.2969    0.0968 C   0  0  0  0  0  0  0  0  0  0  0  0
   -3.8864   -1.0244   -0.0633 C   0  0  0  0  0  0  0  0  0  0  0  0
   -5.0352   -1.7089   -0.3174 O   0  0  0  0  0  0  0  0  0  0  0  0
   -6.2040   -1.0042    0.1093 C   0  0  0  0  0  0  0  0  0  0  0  0
   -6.2610    0.4294   -0.3834 C   0  0  0  0  0  0  0  0  0  0  0  0
   -4.9516    1.1397   -0.1620 C   0  0  0  0  0  0  0  0  0  0  0  0
   -4.8487    2.3531   -0.3255 O   0  0  0  0  0  0  0  0  0  0  0  0
    0.1407   -0.1208    0.8771 C   0  0  0  0  0  0  0  0  0  0  0  0
    0.5308   -0.5478    2.1583 C   0  0  0  0  0  0  0  0  0  0  0  0
    0.7344   -1.9056    2.4052 C   0  0  0  0  0  0  0  0  0  0  0  0
    0.5208   -2.8327    1.3902 C   0  0  0  0  0  0  0  0  0  0  0  0
    0.7616   -4.1293    1.6195 F   0  0  0  0  0  0  0  0  0  0  0  0
    0.0833   -2.4346    0.1333 C   0  0  0  0  0  0  0  0  0  0  0  0
   -0.1125   -1.0806   -0.1247 C   0  0  0  0  0  0  0  0  0  0  0  0
    2.7434    0.3228   -1.0852 H   0  0  0  0  0  0  0  0  0  0  0  0
    3.5717    0.3215    0.5001 H   0  0  0  0  0  0  0  0  0  0  0  0
    2.5981   -0.5700    0.0000 H   0  0  0  0  0  0  0  0  0  0  0  0
   -0.1809    1.4889   -0.5385 H   0  0  0  0  0  0  0  0  0  0  0  0
   -0.6314    2.8054    1.9246 H   0  0  0  0  0  0  0  0  0  0  0  0
   -3.0400   -1.7034   -0.0587 H   0  0  0  0  0  0  0  0  0  0  0  0
   -6.2479   -1.0528    1.2040 H   0  0  0  0  0  0  0  0  0  0  0  0
   -7.0702   -1.5546   -0.2715 H   0  0  0  0  0  0  0  0  0  0  0  0
   -6.4618    0.4513   -1.4598 H   0  0  0  0  0  0  0  0  0  0  0  0
   -7.0534    0.9670    0.1460 H   0  0  0  0  0  0  0  0  0  0  0  0
    0.7297    0.1733    2.9499 H   0  0  0  0  0  0  0  0  0  0  0  0
    1.0849   -2.2461    3.3749 H   0  0  0  0  0  0  0  0  0  0  0  0
   -0.0725   -3.1760   -0.6441 H   0  0  0  0  0  0  0  0  0  0  0  0
   -0.4189   -0.7721   -1.1237 H   0  0  0  0  0  0  0  0  0  0  0  0
  1  2  1  0  0  0  0
  1 24  1  0  0  0  0
  1 25  1  0  0  0  0
  1 26  1  0  0  0  0
  2  3  1  0  0  0  0
  3  4  2  0  0  0  0
  5  3  1  0  0  0  0
  5  6  1  0  0  0  0
  5 17  1  0  0  0  0
  5 27  1  1  0  0  0
  6  7  1  0  0  0  0
  6 28  1  0  0  0  0
  7  8  2  0  0  0  0
  7  9  1  0  0  0  0
  9 10  1  0  0  0  0
 10 15  1  0  0  0  0
 10 11  2  0  0  0  0
 11 12  1  0  0  0  0
 11 29  1  0  0  0  0
 12 13  1  0  0  0  0
 13 14  1  0  0  0  0
 13 30  1  0  0  0  0
 13 31  1  0  0  0  0
 14 15  1  0  0  0  0
 14 32  1  0  0  0  0
 14 33  1  0  0  0  0
 15 16  2  0  0  0  0
 17 23  2  0  0  0  0
 17 18  1  0  0  0  0
 18 19  2  0  0  0  0
 18 34  1  0  0  0  0
 19 20  1  0  0  0  0
 19 35  1  0  0  0  0
 20 21  1  0  0  0  0
 20 22  2  0  0  0  0
 22 23  1  0  0  0  0
 22 36  1  0  0  0  0
 23 37  1  0  0  0  0
M  END
$$$$
