
 OpenBabel03202621352D

 23 24  0  0  1  0  0  0  0  0999 V2000
    2.8325    1.1300    0.0000 C   0  0  0  0  0  0  0  0  0  0  0  0
    2.0235    0.5422    0.0000 O   0  0  0  0  0  0  0  0  0  0  0  0
    2.8133   -0.9435   -0.0000 C   0  0  2  0  0  0  0  0  0  0  0  0
    4.0161   -1.8202    0.0000 O   0  0  0  0  0  0  0  0  0  0  0  0
    3.7229   -3.1258   -0.0000 C   0  0  0  0  0  0  0  0  0  0  0  0
    4.5217   -4.0331   -0.0000 O   0  0  0  0  0  0  0  0  0  0  0  0
    2.2883   -3.2132    0.0000 C   0  0  0  0  0  0  0  0  0  0  0  0
    1.5132   -4.7142    0.0000 Cl  0  0  0  0  0  0  0  0  0  0  0  0
    1.8833   -1.9484    0.0000 C   0  0  0  0  0  0  0  0  0  0  0  0
    0.7104   -1.3450    0.0000 N   0  0  0  0  0  0  0  0  0  0  0  0
   -0.3086   -2.0853    0.0000 C   0  0  0  0  0  0  0  0  0  0  0  0
   -1.2024   -1.0827    0.0000 C   0  0  0  0  0  0  0  0  0  0  0  0
   -2.1160   -1.4894    0.0000 C   0  0  0  0  0  0  0  0  0  0  0  0
   -0.9548    0.1512    0.0000 N   0  0  0  0  0  0  0  0  0  0  0  0
    0.2770   -0.0305   -0.0000 N   0  0  0  0  0  0  0  0  0  0  0  0
    3.8904    0.8477   -0.0000 H   0  0  0  0  0  0  0  0  0  0  0  0
    2.4121    2.1463    0.0000 H   0  0  0  0  0  0  0  0  0  0  0  0
    3.6981    1.7589    0.0000 H   0  0  0  0  0  0  0  0  0  0  0  0
    3.7888   -0.5577    0.0000 H   0  0  0  0  0  0  0  0  0  0  0  0
   -0.3921   -3.1626    0.0000 H   0  0  0  0  0  0  0  0  0  0  0  0
   -2.8608   -0.6678   -0.0000 H   0  0  0  0  0  0  0  0  0  0  0  0
   -2.1796   -2.6041   -0.0000 H   0  0  0  0  0  0  0  0  0  0  0  0
   -3.0935   -1.9246    0.0000 H   0  0  0  0  0  0  0  0  0  0  0  0
  1  2  1  0  0  0  0
  1 16  1  0  0  0  0
  1 17  1  0  0  0  0
  1 18  1  0  0  0  0
  3  2  1  0  0  0  0
  3  4  1  0  0  0  0
  3  9  1  0  0  0  0
  3 19  1  1  0  0  0
  4  5  1  0  0  0  0
  5  6  2  0  0  0  0
  5  7  1  0  0  0  0
  7  8  1  0  0  0  0
  7  9  2  0  0  0  0
  9 10  1  0  0  0  0
 10 15  1  0  0  0  0
 10 11  1  0  0  0  0
 11 12  2  0  0  0  0
 11 20  1  0  0  0  0
 12 13  1  0  0  0  0
 12 14  1  0  0  0  0
 13 21  1  0  0  0  0
 13 22  1  0  0  0  0
 13 23  1  0  0  0  0
 14 15  2  0  0  0  0
M  END
$$$$
