
 OpenBabel03202621372D

 28 29  0  0  1  0  0  0  0  0999 V2000
    3.2816    2.5121   -0.5657 O   0  0  0  0  0  0  0  0  0  0  0  0
    4.2009    1.7884   -0.1838 C   0  0  0  0  0  0  0  0  0  0  0  0
    5.5658    2.3439    0.1446 C   0  0  0  0  0  0  0  0  0  0  0  0
    6.6040    1.2475    0.0014 C   0  0  0  0  0  0  0  0  0  0  0  0
    6.2749    0.0841    0.7681 O   0  0  0  0  0  0  0  0  0  0  0  0
    5.0187   -0.3913    0.4754 C   0  0  0  0  0  0  0  0  0  0  0  0
    3.9951    0.3251   -0.0004 C   0  0  0  0  0  0  0  0  0  0  0  0
    2.8476   -0.2950   -0.5069 O   0  0  0  0  0  0  0  0  0  0  0  0
    1.6971   -0.2956    0.2500 C   0  0  0  0  0  0  0  0  0  0  0  0
    1.5676    0.1791    1.3670 O   0  0  0  0  0  0  0  0  0  0  0  0
    0.6383   -1.0985   -0.5451 C   0  0  2  0  0  0  0  0  0  0  0  0
    0.3628   -2.4648    0.1228 C   0  0  0  0  0  0  0  0  0  0  0  0
   -1.0856   -2.8029    0.2805 C   0  0  0  0  0  0  0  0  0  0  0  0
   -2.0174   -1.8506    0.1627 C   0  0  0  0  0  0  0  0  0  0  0  0
   -1.6451   -0.4341   -0.1290 C   0  0  0  0  0  0  0  0  0  0  0  0
   -0.5055   -0.3658   -0.9728 O   0  0  0  0  0  0  0  0  0  0  0  0
    5.7994    3.1568   -0.5505 H   0  0  0  0  0  0  0  0  0  0  0  0
    5.5457    2.7330    1.1667 H   0  0  0  0  0  0  0  0  0  0  0  0
    7.5798    1.6054    0.3474 H   0  0  0  0  0  0  0  0  0  0  0  0
    6.7286    0.9522   -1.0498 H   0  0  0  0  0  0  0  0  0  0  0  0
    4.9638   -1.4544    0.6620 H   0  0  0  0  0  0  0  0  0  0  0  0
    1.1301   -1.3434   -1.4975 H   0  0  0  0  0  0  0  0  0  0  0  0
    0.8248   -3.2456   -0.4955 H   0  0  0  0  0  0  0  0  0  0  0  0
    0.8544   -2.5393    1.1003 H   0  0  0  0  0  0  0  0  0  0  0  0
   -1.3647   -3.8273    0.5095 H   0  0  0  0  0  0  0  0  0  0  0  0
   -3.0687   -2.0883    0.2951 H   0  0  0  0  0  0  0  0  0  0  0  0
   -2.4661    0.0434   -0.6746 H   0  0  0  0  0  0  0  0  0  0  0  0
   -1.4809    0.1312    0.7935 H   0  0  0  0  0  0  0  0  0  0  0  0
  1  2  2  0  0  0  0
  2  7  1  0  0  0  0
  2  3  1  0  0  0  0
  3  4  1  0  0  0  0
  3 17  1  0  0  0  0
  3 18  1  0  0  0  0
  4  5  1  0  0  0  0
  4 19  1  0  0  0  0
  4 20  1  0  0  0  0
  5  6  1  0  0  0  0
  6  7  2  0  0  0  0
  6 21  1  0  0  0  0
  7  8  1  0  0  0  0
  8  9  1  0  0  0  0
  9 10  2  0  0  0  0
 11  9  1  0  0  0  0
 11 12  1  0  0  0  0
 11 16  1  0  0  0  0
 11 22  1  1  0  0  0
 12 13  1  0  0  0  0
 12 23  1  0  0  0  0
 12 24  1  0  0  0  0
 13 14  2  0  0  0  0
 13 25  1  0  0  0  0
 14 15  1  0  0  0  0
 14 26  1  0  0  0  0
 15 16  1  0  0  0  0
 15 27  1  0  0  0  0
 15 28  1  0  0  0  0
M  END
$$$$
