
 OpenBabel03202621322D

 26 27  0  0  0  0  0  0  0  0999 V2000
    2.5981    2.5000    0.0000 C   0  0  0  0  0  0  0  0  0  0  0  0
    2.5981    1.5000    0.0000 S   0  0  0  0  0  0  0  0  0  0  0  0
    0.9504    1.0456    0.0000 C   0  0  0  0  0  0  0  0  0  0  0  0
   -0.3844    2.0907    0.0000 S   0  0  0  0  0  0  0  0  0  0  0  0
    1.1566   -0.3260    0.0000 N   0  0  0  0  0  0  0  0  0  0  0  0
    0.2105   -1.2834    0.0000 C   0  0  0  0  0  0  0  0  0  0  0  0
    0.5393   -2.6238    0.0000 C   0  0  0  0  0  0  0  0  0  0  0  0
   -0.5082   -3.5540   -0.0000 C   0  0  0  0  0  0  0  0  0  0  0  0
   -1.8346   -3.0917   -0.0000 C   0  0  0  0  0  0  0  0  0  0  0  0
   -3.0799   -3.8024    0.0000 C   0  0  0  0  0  0  0  0  0  0  0  0
   -3.5202   -5.0357   -0.0000 N   0  0  0  0  0  0  0  0  0  0  0  0
   -4.9408   -4.9231    0.0000 N   0  0  0  0  0  0  0  0  0  0  0  0
   -5.2124   -3.6380    0.0000 C   0  0  0  0  0  0  0  0  0  0  0  0
   -6.6961   -2.7654    0.0000 S   0  0  0  0  0  0  0  0  0  0  0  0
   -4.1101   -2.9088    0.0000 O   0  0  0  0  0  0  0  0  0  0  0  0
   -2.0696   -1.7277   -0.0000 C   0  0  0  0  0  0  0  0  0  0  0  0
   -1.0791   -0.8551   -0.0000 C   0  0  0  0  0  0  0  0  0  0  0  0
    3.6562    2.7892   -0.0000 H   0  0  0  0  0  0  0  0  0  0  0  0
    1.6630    3.0295   -0.0000 H   0  0  0  0  0  0  0  0  0  0  0  0
    2.5981    3.5700    0.0000 H   0  0  0  0  0  0  0  0  0  0  0  0
    2.1404   -0.5726    0.0000 H   0  0  0  0  0  0  0  0  0  0  0  0
    1.5861   -2.9347    0.0000 H   0  0  0  0  0  0  0  0  0  0  0  0
   -0.2647   -4.6072    0.0000 H   0  0  0  0  0  0  0  0  0  0  0  0
   -6.0978   -1.5488    0.0000 H   0  0  0  0  0  0  0  0  0  0  0  0
   -3.0345   -1.2230   -0.0000 H   0  0  0  0  0  0  0  0  0  0  0  0
   -1.4603    0.1303   -0.0000 H   0  0  0  0  0  0  0  0  0  0  0  0
  1  2  1  0  0  0  0
  1 18  1  0  0  0  0
  1 19  1  0  0  0  0
  1 20  1  0  0  0  0
  2  3  1  0  0  0  0
  3  4  2  0  0  0  0
  3  5  1  0  0  0  0
  5  6  1  0  0  0  0
  5 21  1  0  0  0  0
  6 17  2  0  0  0  0
  6  7  1  0  0  0  0
  7  8  2  0  0  0  0
  7 22  1  0  0  0  0
  8  9  1  0  0  0  0
  8 23  1  0  0  0  0
  9 10  1  0  0  0  0
  9 16  2  0  0  0  0
 10 15  1  0  0  0  0
 10 11  2  0  0  0  0
 11 12  1  0  0  0  0
 12 13  2  0  0  0  0
 13 14  1  0  0  0  0
 13 15  1  0  0  0  0
 14 24  1  0  0  0  0
 16 17  1  0  0  0  0
 16 25  1  0  0  0  0
 17 26  1  0  0  0  0
M  END
$$$$
