
 OpenBabel03202621282D

 10 10  0  0  1  0  0  0  0  0999 V2000
    2.8063   -0.4831    0.0000 C   0  0  0  0  0  0  0  0  0  0  0  0
    2.2616    0.3556    0.0000 S   0  0  0  0  0  0  0  0  0  0  0  0
    1.2630    0.3032    0.0000 C   0  0  0  0  0  0  0  0  0  0  0  0
    0.8090   -0.5878    0.0000 C   0  0  2  0  0  0  0  0  0  0  0  0
    1.5919   -1.2100    0.0000 C   0  0  0  0  0  0  0  0  0  0  0  0
    0.5000   -1.5388    0.0000 C   0  0  0  0  0  0  0  0  0  0  0  0
   -0.5000   -1.5388    0.0000 C   0  0  0  0  0  0  0  0  0  0  0  0
   -0.8090   -0.5878    0.0000 C   0  0  0  0  0  0  0  0  0  0  0  0
   -0.0000   -0.0000    0.0000 C   0  0  0  0  0  0  0  0  0  0  0  0
    0.0000    1.0000    0.0000 O   0  0  0  0  0  0  0  0  0  0  0  0
  1  2  1  0  0  0  0
  2  3  1  0  0  0  0
  3  4  1  0  0  0  0
  4  9  1  0  0  0  0
  4  5  1  1  0  0  0
  4  6  1  0  0  0  0
  6  7  1  0  0  0  0
  7  8  1  0  0  0  0
  8  9  1  0  0  0  0
  9 10  2  0  0  0  0
M  END
$$$$
