
 OpenBabel03202621342D

 21 20  0  0  0  0  0  0  0  0999 V2000
    4.6069   -1.9022    0.0000 C   0  0  0  0  0  0  0  0  0  0  0  0
    4.3301   -0.5000    0.0000 C   0  0  0  0  0  0  0  0  0  0  0  0
    5.1962    0.0000    0.0000 C   0  0  0  0  0  0  0  0  0  0  0  0
    3.5365    0.6083   -0.0000 C   0  0  0  0  0  0  0  0  0  0  0  0
    2.5598   -0.3406    0.0000 C   0  0  0  0  0  0  0  0  0  0  0  0
    1.6932    0.7986   -0.0000 C   0  0  0  0  0  0  0  0  0  0  0  0
    1.5063    1.9872    0.0000 O   0  0  0  0  0  0  0  0  0  0  0  0
    0.8660   -0.5000    0.0000 S   0  0  0  0  0  0  0  0  0  0  0  0
    0.0000    0.0000    0.0000 C   0  0  0  0  0  0  0  0  0  0  0  0
    3.9137   -2.7504   -0.0000 H   0  0  0  0  0  0  0  0  0  0  0  0
    5.6041   -2.3601    0.0000 H   0  0  0  0  0  0  0  0  0  0  0  0
    6.0981   -0.6584   -0.0000 H   0  0  0  0  0  0  0  0  0  0  0  0
    5.3860    1.0963    0.0000 H   0  0  0  0  0  0  0  0  0  0  0  0
    6.1229    0.5350    0.0000 H   0  0  0  0  0  0  0  0  0  0  0  0
    4.0618    1.5884    0.0000 H   0  0  0  0  0  0  0  0  0  0  0  0
    3.2410    1.6658    0.0000 H   0  0  0  0  0  0  0  0  0  0  0  0
    2.8714   -1.3923   -0.0000 H   0  0  0  0  0  0  0  0  0  0  0  0
    2.2191   -1.6608    0.0000 H   0  0  0  0  0  0  0  0  0  0  0  0
   -0.1337    1.1023    0.0000 H   0  0  0  0  0  0  0  0  0  0  0  0
   -0.7732   -0.7832    0.0000 H   0  0  0  0  0  0  0  0  0  0  0  0
   -0.9266    0.5350    0.0000 H   0  0  0  0  0  0  0  0  0  0  0  0
  1  2  2  0  0  0  0
  1 10  1  0  0  0  0
  1 11  1  0  0  0  0
  2  3  1  0  0  0  0
  2  4  1  0  0  0  0
  3 12  1  0  0  0  0
  3 13  1  0  0  0  0
  3 14  1  0  0  0  0
  4  5  1  0  0  0  0
  4 15  1  0  0  0  0
  4 16  1  0  0  0  0
  5  6  1  0  0  0  0
  5 17  1  0  0  0  0
  5 18  1  0  0  0  0
  6  7  2  0  0  0  0
  6  8  1  0  0  0  0
  8  9  1  0  0  0  0
  9 19  1  0  0  0  0
  9 20  1  0  0  0  0
  9 21  1  0  0  0  0
M  END
$$$$
