
 OpenBabel03202621382D

 31 31  0  0  1  0  0  0  0  0999 V2000
    3.5743    2.9154    0.0000 C   0  0  0  0  0  0  0  0  0  0  0  0
    2.8672    3.6225    0.0000 C   0  0  0  0  0  0  0  0  0  0  0  0
    1.8444    3.2401   -0.9729 O   0  0  0  0  0  0  0  0  0  0  0  0
    1.0133    2.2895   -0.4564 C   0  0  0  0  0  0  0  0  0  0  0  0
    0.4800    2.4041    0.6345 O   0  0  0  0  0  0  0  0  0  0  0  0
    1.2010    1.1601   -1.1828 O   0  0  0  0  0  0  0  0  0  0  0  0
    1.0982   -0.0618   -0.4298 C   0  0  0  0  0  0  0  0  0  0  0  0
   -0.3393   -0.3376   -0.0252 C   0  0  0  0  0  0  0  0  0  0  0  0
   -0.6008   -1.7796    0.4584 C   0  0  3  0  0  0  0  0  0  0  0  0
    0.2940   -2.0582    1.5506 O   0  0  0  0  0  0  0  0  0  0  0  0
   -0.2916   -2.7679   -0.6780 C   0  0  0  0  0  0  0  0  0  0  0  0
   -1.2325   -3.9488   -0.6088 C   0  0  0  0  0  0  0  0  0  0  0  0
   -2.5936   -3.5243   -0.7153 O   0  0  0  0  0  0  0  0  0  0  0  0
   -2.9066   -2.6683    0.3125 C   0  0  0  0  0  0  0  0  0  0  0  0
   -2.0475   -1.9056    1.0018 C   0  0  0  0  0  0  0  0  0  0  0  0
   -2.2377   -1.2400    2.0641 O   0  5  0  0  0  0  0  0  0  0  0  0
    3.1511    2.2084    0.7564 H   0  0  0  0  0  0  0  0  0  0  0  0
    4.3802    3.4737    0.5386 H   0  0  0  0  0  0  0  0  0  0  0  0
    4.3309    2.1588    0.0000 H   0  0  0  0  0  0  0  0  0  0  0  0
    3.1649    4.6025   -0.4099 H   0  0  0  0  0  0  0  0  0  0  0  0
    2.3484    3.9502    0.9195 H   0  0  0  0  0  0  0  0  0  0  0  0
    1.7677   -0.0134    0.4396 H   0  0  0  0  0  0  0  0  0  0  0  0
    1.4955   -0.8445   -1.0831 H   0  0  0  0  0  0  0  0  0  0  0  0
   -1.0089   -0.0784   -0.8550 H   0  0  0  0  0  0  0  0  0  0  0  0
   -0.5828    0.3572    0.7850 H   0  0  0  0  0  0  0  0  0  0  0  0
   -0.2907   -1.7932    2.3027 H   0  0  0  0  0  0  0  0  0  0  0  0
   -0.4388   -2.2819   -1.6517 H   0  0  0  0  0  0  0  0  0  0  0  0
    0.7468   -3.1188   -0.6308 H   0  0  0  0  0  0  0  0  0  0  0  0
   -1.0933   -4.5306    0.3144 H   0  0  0  0  0  0  0  0  0  0  0  0
   -1.0367   -4.6278   -1.4463 H   0  0  0  0  0  0  0  0  0  0  0  0
   -3.9638   -2.7108    0.5459 H   0  0  0  0  0  0  0  0  0  0  0  0
  1  2  1  0  0  0  0
  1 17  1  0  0  0  0
  1 18  1  0  0  0  0
  1 19  1  0  0  0  0
  2  3  1  0  0  0  0
  2 20  1  0  0  0  0
  2 21  1  0  0  0  0
  3  4  1  0  0  0  0
  4  5  2  0  0  0  0
  4  6  1  0  0  0  0
  6  7  1  0  0  0  0
  7  8  1  0  0  0  0
  7 22  1  0  0  0  0
  7 23  1  0  0  0  0
  8  9  1  0  0  0  0
  8 24  1  0  0  0  0
  8 25  1  0  0  0  0
  9 15  1  0  0  0  0
  9 10  1  0  0  0  0
  9 11  1  0  0  0  0
 10 26  1  0  0  0  0
 11 12  1  0  0  0  0
 11 27  1  0  0  0  0
 11 28  1  0  0  0  0
 12 13  1  0  0  0  0
 12 29  1  0  0  0  0
 12 30  1  0  0  0  0
 13 14  1  0  0  0  0
 14 15  2  0  0  0  0
 14 31  1  0  0  0  0
 15 16  1  0  0  0  0
M  CHG  1  16  -1
M  END
$$$$
