
 OpenBabel03202621302D

 23 22  0  0  1  0  0  0  0  0999 V2000
    1.7321    0.0000    0.0000 C   0  0  0  0  0  0  0  0  0  0  0  0
    2.5981    0.5000    0.0000 O   0  0  0  0  0  0  0  0  0  0  0  0
    2.5981    1.5000    0.0000 C   0  0  2  0  0  0  0  0  0  0  0  0
    3.4641    2.0000    0.0000 C   0  0  0  0  0  0  0  0  0  0  0  0
    1.8030    2.6733    0.9107 C   0  0  2  0  0  0  0  0  0  0  0  0
    1.6423    3.9955    0.2259 N   0  0  0  0  0  0  0  0  0  0  0  0
    0.5066    2.0071    0.9509 C   0  0  0  0  0  0  0  0  0  0  0  0
   -0.5534    2.4119    1.3853 O   0  0  0  0  0  0  0  0  0  0  0  0
    0.8660    0.5000    0.0000 S   0  0  0  0  0  0  0  0  0  0  0  0
    0.0000    0.0000    0.0000 C   0  0  0  0  0  0  0  0  0  0  0  0
    2.1228   -0.8508   -0.8827 H   0  0  0  0  0  0  0  0  0  0  0  0
    2.1188   -0.8469    0.8893 H   0  0  0  0  0  0  0  0  0  0  0  0
    0.8055   -0.5350    0.0000 H   0  0  0  0  0  0  0  0  0  0  0  0
    2.1968    1.8214   -1.0526 H   0  0  0  0  0  0  0  0  0  0  0  0
    4.2803    1.2332   -0.2219 H   0  0  0  0  0  0  0  0  0  0  0  0
    3.4691    2.7098   -0.8926 H   0  0  0  0  0  0  0  0  0  0  0  0
    4.3907    2.5350    0.0000 H   0  0  0  0  0  0  0  0  0  0  0  0
    2.1849    2.7638    1.9255 H   0  0  0  0  0  0  0  0  0  0  0  0
    2.4520    4.5773    0.4020 H   0  0  0  0  0  0  0  0  0  0  0  0
    0.8203    4.4764    0.5716 H   0  0  0  0  0  0  0  0  0  0  0  0
   -0.8198    0.7577    0.0853 H   0  0  0  0  0  0  0  0  0  0  0  0
   -0.2116   -0.1434   -1.1583 H   0  0  0  0  0  0  0  0  0  0  0  0
   -0.9266   -0.5350    0.0000 H   0  0  0  0  0  0  0  0  0  0  0  0
  1  2  1  0  0  0  0
  1 11  1  0  0  0  0
  1 12  1  0  0  0  0
  1 13  1  0  0  0  0
  2  3  1  0  0  0  0
  3  4  1  0  0  0  0
  3  5  1  0  0  0  0
  3 14  1  6  0  0  0
  4 15  1  0  0  0  0
  4 16  1  0  0  0  0
  4 17  1  0  0  0  0
  5  6  1  0  0  0  0
  5  7  1  0  0  0  0
  5 18  1  6  0  0  0
  6 19  1  0  0  0  0
  6 20  1  0  0  0  0
  7  8  2  0  0  0  0
  7  9  1  0  0  0  0
  9 10  1  0  0  0  0
 10 21  1  0  0  0  0
 10 22  1  0  0  0  0
 10 23  1  0  0  0  0
M  END
$$$$
