
 OpenBabel03202621302D

 21 20  0  0  0  0  0  0  0  0999 V2000
    4.5000   -0.8660    0.0000 C   0  0  0  0  0  0  0  0  0  0  0  0
    4.0000    0.0000    0.0000 C   0  0  0  0  0  0  0  0  0  0  0  0
    3.6060    0.5591   -1.3972 C   0  0  0  0  0  0  0  0  0  0  0  0
    4.7497    0.9243   -2.0552 F   0  0  0  0  0  0  0  0  0  0  0  0
    3.0229   -0.3801   -2.1787 F   0  0  0  0  0  0  0  0  0  0  0  0
    2.7379    1.7995   -1.3117 C   0  0  0  0  0  0  0  0  0  0  0  0
    1.2859    1.5282   -0.9671 C   0  0  0  0  0  0  0  0  0  0  0  0
    1.0000    0.0000    0.0000 S   0  0  0  0  0  0  0  0  0  0  0  0
    0.0000    0.0000    0.0000 C   0  0  0  0  0  0  0  0  0  0  0  0
    5.4482   -0.5631   -0.5125 H   0  0  0  0  0  0  0  0  0  0  0  0
    4.7389   -0.9563    1.0918 H   0  0  0  0  0  0  0  0  0  0  0  0
    5.0350   -1.7926    0.0000 H   0  0  0  0  0  0  0  0  0  0  0  0
    4.5732    0.8631    0.4111 H   0  0  0  0  0  0  0  0  0  0  0  0
    3.1875    0.0496    0.7179 H   0  0  0  0  0  0  0  0  0  0  0  0
    2.7741    2.3354   -2.2685 H   0  0  0  0  0  0  0  0  0  0  0  0
    3.1696    2.4973   -0.5827 H   0  0  0  0  0  0  0  0  0  0  0  0
    0.7242    1.4488   -1.9089 H   0  0  0  0  0  0  0  0  0  0  0  0
    0.8809    2.3948   -0.4249 H   0  0  0  0  0  0  0  0  0  0  0  0
   -0.1747    0.3040    1.0510 H   0  0  0  0  0  0  0  0  0  0  0  0
   -0.1710   -1.0913   -0.0678 H   0  0  0  0  0  0  0  0  0  0  0  0
   -1.0700    0.0000    0.0000 H   0  0  0  0  0  0  0  0  0  0  0  0
  1  2  1  0  0  0  0
  1 10  1  0  0  0  0
  1 11  1  0  0  0  0
  1 12  1  0  0  0  0
  2  3  1  0  0  0  0
  2 13  1  0  0  0  0
  2 14  1  0  0  0  0
  3  4  1  0  0  0  0
  3  5  1  0  0  0  0
  3  6  1  0  0  0  0
  6  7  1  0  0  0  0
  6 15  1  0  0  0  0
  6 16  1  0  0  0  0
  7  8  1  0  0  0  0
  7 17  1  0  0  0  0
  7 18  1  0  0  0  0
  8  9  1  0  0  0  0
  9 19  1  0  0  0  0
  9 20  1  0  0  0  0
  9 21  1  0  0  0  0
M  END
$$$$
