
 OpenBabel03202621302D

 27 29  0  0  0  0  0  0  0  0999 V2000
    1.4945   -0.9706    0.0000 C   0  0  0  0  0  0  0  0  0  0  0  0
    0.5000   -0.8660    0.0000 C   0  0  0  0  0  0  0  0  0  0  0  0
   -0.4305   -1.8956   -0.0757 C   0  0  0  0  0  0  0  0  0  0  0  0
   -1.6730   -1.3246   -0.1510 N   0  0  0  0  0  0  0  0  0  0  0  0
   -2.9146   -2.0140   -0.2423 C   0  0  0  0  0  0  0  0  0  0  0  0
   -2.8775   -3.3489   -0.1979 N   0  0  0  0  0  0  0  0  0  0  0  0
   -4.0500   -3.9442   -0.2933 C   0  0  0  0  0  0  0  0  0  0  0  0
   -4.0651   -5.3221   -0.2399 N   0  0  0  0  0  0  0  0  0  0  0  0
   -5.2110   -3.3188   -0.3984 N   0  0  0  0  0  0  0  0  0  0  0  0
   -5.1614   -1.9839   -0.4368 C   0  0  0  0  0  0  0  0  0  0  0  0
   -6.4472   -1.2088   -0.5630 C   0  0  0  0  0  0  0  0  0  0  0  0
   -7.4501   -1.1915    0.5658 C   0  0  0  0  0  0  0  0  0  0  0  0
   -6.6439    0.0375    0.2742 C   0  0  0  0  0  0  0  0  0  0  0  0
   -4.0263   -1.2924   -0.3639 N   0  0  0  0  0  0  0  0  0  0  0  0
   -1.5423    0.0181   -0.1319 N   0  0  0  0  0  0  0  0  0  0  0  0
   -0.2475    0.3025   -0.0478 N   0  0  0  0  0  0  0  0  0  0  0  0
    1.6261   -1.5047    0.9749 H   0  0  0  0  0  0  0  0  0  0  0  0
    1.8250    0.0808    0.1870 H   0  0  0  0  0  0  0  0  0  0  0  0
    2.5586   -1.0825    0.0000 H   0  0  0  0  0  0  0  0  0  0  0  0
   -0.3092   -2.9707   -0.0959 H   0  0  0  0  0  0  0  0  0  0  0  0
   -4.9713   -5.6579    0.0600 H   0  0  0  0  0  0  0  0  0  0  0  0
   -3.2547   -5.6795    0.2443 H   0  0  0  0  0  0  0  0  0  0  0  0
   -6.8550   -1.1776   -1.5693 H   0  0  0  0  0  0  0  0  0  0  0  0
   -7.2219   -1.7496    1.4675 H   0  0  0  0  0  0  0  0  0  0  0  0
   -8.5024   -1.1797    0.3061 H   0  0  0  0  0  0  0  0  0  0  0  0
   -5.8642    0.3160    0.9764 H   0  0  0  0  0  0  0  0  0  0  0  0
   -7.1282    0.8835   -0.1982 H   0  0  0  0  0  0  0  0  0  0  0  0
  1  2  1  0  0  0  0
  1 17  1  0  0  0  0
  1 18  1  0  0  0  0
  1 19  1  0  0  0  0
  2 16  1  0  0  0  0
  2  3  2  0  0  0  0
  3  4  1  0  0  0  0
  3 20  1  0  0  0  0
  4  5  1  0  0  0  0
  4 15  1  0  0  0  0
  5 14  2  0  0  0  0
  5  6  1  0  0  0  0
  6  7  2  0  0  0  0
  7  8  1  0  0  0  0
  7  9  1  0  0  0  0
  8 21  1  0  0  0  0
  8 22  1  0  0  0  0
  9 10  2  0  0  0  0
 10 11  1  0  0  0  0
 10 14  1  0  0  0  0
 11 13  1  0  0  0  0
 11 12  1  0  0  0  0
 11 23  1  0  0  0  0
 12 13  1  0  0  0  0
 12 24  1  0  0  0  0
 12 25  1  0  0  0  0
 13 26  1  0  0  0  0
 13 27  1  0  0  0  0
 15 16  2  0  0  0  0
M  END
$$$$
