
 OpenBabel03202621282D

 10 11  0  0  1  0  0  0  0  0999 V2000
   -1.9319   -0.4824    0.0000 O   0  0  0  0  0  0  0  0  0  0  0  0
   -1.6730   -1.4483    0.0000 C   0  0  0  0  0  0  0  0  0  0  0  0
   -0.7071   -1.7071    0.0000 O   0  0  0  0  0  0  0  0  0  0  0  0
    0.0000   -1.0000    0.0000 C   0  0  2  0  0  0  0  0  0  0  0  0
    0.0000   -0.0000    0.0000 C   0  0  0  0  0  0  0  0  0  0  0  0
    1.0000    0.0000    0.0000 C   0  0  1  0  0  0  0  0  0  0  0  0
    1.9511    0.3090    0.0000 C   0  0  0  0  0  0  0  0  0  0  0  0
    2.5388   -0.5000    0.0000 N   0  0  0  0  0  0  0  0  0  0  0  0
    1.9511   -1.3090    0.0000 C   0  0  0  0  0  0  0  0  0  0  0  0
    1.0000   -1.0000    0.0000 C   0  0  2  0  0  0  0  0  0  0  0  0
  1  2  2  0  0  0  0
  2  3  1  0  0  0  0
  4  3  1  6  0  0  0
  4  5  1  0  0  0  0
  4 10  1  0  0  0  0
  6  5  1  1  0  0  0
  6  7  1  0  0  0  0
  6 10  1  0  0  0  0
  7  8  1  0  0  0  0
  8  9  1  0  0  0  0
 10  9  1  6  0  0  0
M  END
$$$$
