
 OpenBabel03202621342D

 18 18  0  0  0  0  0  0  0  0999 V2000
    3.2510    2.4319   -0.2285 C   0  0  0  0  0  0  0  0  0  0  0  0
    1.5029    2.8949   -0.2120 S   0  0  0  0  0  0  0  0  0  0  0  0
    0.5257    1.4375   -0.5230 C   0  0  0  0  0  0  0  0  0  0  0  0
   -0.5759    1.5614   -1.0420 O   0  0  0  0  0  0  0  0  0  0  0  0
    1.0000    0.0000    0.0000 C   0  0  0  0  0  0  0  0  0  0  0  0
    1.9968   -0.0802    0.0000 C   0  0  0  0  0  0  0  0  0  0  0  0
    0.0380   -1.0898   -0.3975 C   0  0  0  0  0  0  0  0  0  0  0  0
   -0.0026   -0.6404    1.0532 C   0  0  0  0  0  0  0  0  0  0  0  0
    3.5417    1.9653    0.7164 H   0  0  0  0  0  0  0  0  0  0  0  0
    3.8743    3.3279   -0.3247 H   0  0  0  0  0  0  0  0  0  0  0  0
    3.5089    1.7808   -1.0708 H   0  0  0  0  0  0  0  0  0  0  0  0
    2.1665   -1.1801   -0.0807 H   0  0  0  0  0  0  0  0  0  0  0  0
    2.1975    0.1928    1.0644 H   0  0  0  0  0  0  0  0  0  0  0  0
    3.0634   -0.1660    0.0000 H   0  0  0  0  0  0  0  0  0  0  0  0
    0.3725   -2.1097   -0.5803 H   0  0  0  0  0  0  0  0  0  0  0  0
   -0.8045   -0.8435   -1.0423 H   0  0  0  0  0  0  0  0  0  0  0  0
   -0.3442    0.2851    1.5849 H   0  0  0  0  0  0  0  0  0  0  0  0
   -1.0839   -0.8713    1.2131 H   0  0  0  0  0  0  0  0  0  0  0  0
  1  2  1  0  0  0  0
  1  9  1  0  0  0  0
  1 10  1  0  0  0  0
  1 11  1  0  0  0  0
  2  3  1  0  0  0  0
  3  4  2  0  0  0  0
  3  5  1  0  0  0  0
  5  8  1  0  0  0  0
  5  6  1  0  0  0  0
  5  7  1  0  0  0  0
  6 12  1  0  0  0  0
  6 13  1  0  0  0  0
  6 14  1  0  0  0  0
  7  8  1  0  0  0  0
  7 15  1  0  0  0  0
  7 16  1  0  0  0  0
  8 17  1  0  0  0  0
  8 18  1  0  0  0  0
M  END
$$$$
