
 OpenBabel03202621372D

 27 27  0  0  1  0  0  0  0  0999 V2000
   -2.2528    2.5289    0.0000 C   0  0  0  0  0  0  0  0  0  0  0  0
   -1.4438    1.9411    0.0000 O   0  0  0  0  0  0  0  0  0  0  0  0
   -0.5919    2.3991   -1.0399 C   0  0  0  0  0  0  0  0  0  0  0  0
   -0.6889    3.2838   -1.8427 O   0  0  0  0  0  0  0  0  0  0  0  0
    0.2788    1.7601    0.0000 C   0  0  1  0  0  0  0  0  0  0  0  0
    0.8666    2.5691    0.0000 C   0  0  0  0  0  0  0  0  0  0  0  0
    1.9260    0.9915   -0.3628 C   0  0  0  0  0  0  0  0  0  0  0  0
    3.1403    1.7387   -0.0775 O   0  0  0  0  0  0  0  0  0  0  0  0
   -0.3090    0.9511    0.0000 N   0  0  0  0  0  0  0  0  0  0  0  0
   -0.6778    0.0924    1.0044 C   0  0  0  0  0  0  0  0  0  0  0  0
   -1.6180    0.0000    0.0000 C   0  0  0  0  0  0  0  0  0  0  0  0
   -2.5691   -0.3090    0.0000 C   0  0  0  0  0  0  0  0  0  0  0  0
   -1.0136   -0.6437   -1.0657 N   0  0  0  0  0  0  0  0  0  0  0  0
    0.0147    0.0560   -1.1206 N   0  0  0  0  0  0  0  0  0  0  0  0
   -1.9671    3.2681    0.7874 H   0  0  0  0  0  0  0  0  0  0  0  0
   -3.0137    1.9061    0.5123 H   0  0  0  0  0  0  0  0  0  0  0  0
   -3.1184    3.1578    0.0000 H   0  0  0  0  0  0  0  0  0  0  0  0
    1.3393    2.4205    1.0308 H   0  0  0  0  0  0  0  0  0  0  0  0
    0.2204    3.3996    0.4604 H   0  0  0  0  0  0  0  0  0  0  0  0
    1.4955    3.4347    0.0000 H   0  0  0  0  0  0  0  0  0  0  0  0
    2.0110    0.1119    0.2946 H   0  0  0  0  0  0  0  0  0  0  0  0
    2.0337    0.7021   -1.4209 H   0  0  0  0  0  0  0  0  0  0  0  0
    3.8798    1.1354   -0.2649 H   0  0  0  0  0  0  0  0  0  0  0  0
   -0.7011    0.2968    2.0661 H   0  0  0  0  0  0  0  0  0  0  0  0
   -2.9426    0.0200   -1.0056 H   0  0  0  0  0  0  0  0  0  0  0  0
   -2.4779   -1.4189    0.1474 H   0  0  0  0  0  0  0  0  0  0  0  0
   -3.5867   -0.6396    0.0000 H   0  0  0  0  0  0  0  0  0  0  0  0
  1  2  1  0  0  0  0
  1 15  1  0  0  0  0
  1 16  1  0  0  0  0
  1 17  1  0  0  0  0
  2  3  1  0  0  0  0
  3  4  2  0  0  0  0
  5  3  1  1  0  0  0
  5  6  1  0  0  0  0
  5  7  1  0  0  0  0
  5  9  1  0  0  0  0
  6 18  1  0  0  0  0
  6 19  1  0  0  0  0
  6 20  1  0  0  0  0
  7  8  1  0  0  0  0
  7 21  1  0  0  0  0
  7 22  1  0  0  0  0
  8 23  1  0  0  0  0
  9 14  1  0  0  0  0
  9 10  1  0  0  0  0
 10 11  2  0  0  0  0
 10 24  1  0  0  0  0
 11 12  1  0  0  0  0
 11 13  1  0  0  0  0
 12 25  1  0  0  0  0
 12 26  1  0  0  0  0
 12 27  1  0  0  0  0
 13 14  2  0  0  0  0
M  END
$$$$
