
 OpenBabel03202621342D

 42 42  0  0  1  0  0  0  0  0999 V2000
    2.5981   -4.5000    0.0000 C   0  0  0  0  0  0  0  0  0  0  0  0
    3.4641   -4.0000    0.0000 C   0  0  0  0  0  0  0  0  0  0  0  0
    4.2725   -2.6449    0.0708 C   0  0  0  0  0  0  0  0  0  0  0  0
    3.5559   -1.4546    0.2653 N   0  0  0  0  0  0  0  0  0  0  0  0
    2.3711   -1.7855    0.8822 C   0  0  0  0  0  0  0  0  0  0  0  0
    2.3195   -2.2933    2.0105 O   0  0  0  0  0  0  0  0  0  0  0  0
    1.2940   -1.8165   -0.0928 C   0  0  1  0  0  0  0  0  0  0  0  0
    0.9525   -0.3372    0.4100 O   0  0  0  0  0  0  0  0  0  0  0  0
    0.0512    0.5530   -0.1059 C   0  0  0  0  0  0  0  0  0  0  0  0
   -0.9236    0.2670   -0.9848 C   0  0  0  0  0  0  0  0  0  0  0  0
   -2.2172    0.7701   -0.8969 O   0  0  0  0  0  0  0  0  0  0  0  0
   -2.4508    1.7789    0.0892 C   0  0  0  0  0  0  0  0  0  0  0  0
   -1.2194    2.4546    0.6124 C   0  0  0  0  0  0  0  0  0  0  0  0
    0.0161    1.9020    0.4940 C   0  0  0  0  0  0  0  0  0  0  0  0
    1.1450    2.4062    0.7153 O   0  5  0  0  0  0  0  0  0  0  0  0
    0.0000   -3.0000    0.0000 C   0  0  2  0  0  0  0  0  0  0  0  0
   -0.0402   -2.9157   -1.7569 O   0  0  0  0  0  0  0  0  0  0  0  0
    0.0000   -4.0000    0.0000 C   0  0  0  0  0  0  0  0  0  0  0  0
    0.2211   -4.8377   -0.9095 O   0  0  0  0  0  0  0  0  0  0  0  0
   -0.8219   -4.4988    0.9006 O   0  0  0  0  0  0  0  0  0  0  0  0
   -1.7321   -4.0000    0.0000 C   0  0  0  0  0  0  0  0  0  0  0  0
   -1.7321   -3.0000    0.0000 C   0  0  0  0  0  0  0  0  0  0  0  0
    2.3030   -4.2077   -1.0358 H   0  0  0  0  0  0  0  0  0  0  0  0
    2.9475   -5.5710   -0.0498 H   0  0  0  0  0  0  0  0  0  0  0  0
    1.6715   -5.0350    0.0000 H   0  0  0  0  0  0  0  0  0  0  0  0
    3.9885   -4.4013    0.8980 H   0  0  0  0  0  0  0  0  0  0  0  0
    4.1268   -4.4222   -0.8013 H   0  0  0  0  0  0  0  0  0  0  0  0
    4.9329   -2.5411   -0.8136 H   0  0  0  0  0  0  0  0  0  0  0  0
    4.9252   -2.6634    0.9239 H   0  0  0  0  0  0  0  0  0  0  0  0
    3.5072   -0.7617   -0.4878 H   0  0  0  0  0  0  0  0  0  0  0  0
    1.5902   -1.6106   -1.0930 H   0  0  0  0  0  0  0  0  0  0  0  0
   -0.9270   -0.5113   -1.6916 H   0  0  0  0  0  0  0  0  0  0  0  0
   -3.0592    1.4107    0.9184 H   0  0  0  0  0  0  0  0  0  0  0  0
   -3.0435    2.5170   -0.4448 H   0  0  0  0  0  0  0  0  0  0  0  0
   -1.3210    3.4429    1.0217 H   0  0  0  0  0  0  0  0  0  0  0  0
    0.0000   -1.9300    0.0000 H   0  0  0  0  0  0  0  0  0  0  0  0
   -0.6919   -2.2357   -1.9715 H   0  0  0  0  0  0  0  0  0  0  0  0
   -1.8408   -4.6012   -0.9459 H   0  0  0  0  0  0  0  0  0  0  0  0
   -2.6741   -4.4502    0.3997 H   0  0  0  0  0  0  0  0  0  0  0  0
   -2.4960   -2.8156   -0.8074 H   0  0  0  0  0  0  0  0  0  0  0  0
   -2.2781   -2.7804    0.9696 H   0  0  0  0  0  0  0  0  0  0  0  0
   -1.7321   -1.9300    0.0000 H   0  0  0  0  0  0  0  0  0  0  0  0
  1  2  1  0  0  0  0
  1 23  1  0  0  0  0
  1 24  1  0  0  0  0
  1 25  1  0  0  0  0
  2  3  1  0  0  0  0
  2 26  1  0  0  0  0
  2 27  1  0  0  0  0
  3  4  1  0  0  0  0
  3 28  1  0  0  0  0
  3 29  1  0  0  0  0
  4  5  1  0  0  0  0
  4 30  1  0  0  0  0
  5  6  2  0  0  0  0
  7  5  1  0  0  0  0
  7  8  1  0  0  0  0
  7 16  1  0  0  0  0
  7 31  1  1  0  0  0
  8  9  1  0  0  0  0
  9 14  1  0  0  0  0
  9 10  2  0  0  0  0
 10 11  1  0  0  0  0
 10 32  1  0  0  0  0
 11 12  1  0  0  0  0
 12 13  1  0  0  0  0
 12 33  1  0  0  0  0
 12 34  1  0  0  0  0
 13 14  2  0  0  0  0
 13 35  1  0  0  0  0
 14 15  1  0  0  0  0
 16 17  1  0  0  0  0
 16 18  1  0  0  0  0
 16 36  1  6  0  0  0
 17 37  1  0  0  0  0
 18 19  2  0  0  0  0
 18 20  1  0  0  0  0
 20 21  1  0  0  0  0
 21 22  1  0  0  0  0
 21 38  1  0  0  0  0
 21 39  1  0  0  0  0
 22 40  1  0  0  0  0
 22 41  1  0  0  0  0
 22 42  1  0  0  0  0
M  CHG  1  15  -1
M  END
$$$$
