
 OpenBabel03202621352D

 23 23  0  0  0  0  0  0  0  0999 V2000
    1.9309    2.9206    0.5097 O   0  0  0  0  0  0  0  0  0  0  0  0
    0.8998    2.2637    0.4455 C   0  0  0  0  0  0  0  0  0  0  0  0
    0.8174    0.8964    0.2433 N   0  0  0  0  0  0  0  0  0  0  0  0
    2.0405    0.1689   -0.0674 C   0  0  0  0  0  0  0  0  0  0  0  0
    1.9466   -1.3003    0.3282 C   0  0  0  0  0  0  0  0  0  0  0  0
    0.6848   -1.9587   -0.2489 C   0  0  0  0  0  0  0  0  0  0  0  0
    0.5300   -3.4195    0.1935 C   0  0  0  0  0  0  0  0  0  0  0  0
    1.7479   -4.1404    0.0698 O   0  0  0  0  0  0  0  0  0  0  0  0
   -0.5600   -1.1543    0.1572 C   0  0  0  0  0  0  0  0  0  0  0  0
   -0.4347    0.3184   -0.2169 C   0  0  0  0  0  0  0  0  0  0  0  0
   -0.0889    2.7330    0.5809 H   0  0  0  0  0  0  0  0  0  0  0  0
    2.2132    0.2667   -1.1464 H   0  0  0  0  0  0  0  0  0  0  0  0
    2.8915    0.6344    0.4418 H   0  0  0  0  0  0  0  0  0  0  0  0
    2.8459   -1.8171   -0.0246 H   0  0  0  0  0  0  0  0  0  0  0  0
    1.9343   -1.3818    1.4228 H   0  0  0  0  0  0  0  0  0  0  0  0
    0.7773   -1.9459   -1.3428 H   0  0  0  0  0  0  0  0  0  0  0  0
    0.2134   -3.4840    1.2406 H   0  0  0  0  0  0  0  0  0  0  0  0
   -0.2280   -3.9231   -0.4123 H   0  0  0  0  0  0  0  0  0  0  0  0
    2.0366   -4.0861   -0.8557 H   0  0  0  0  0  0  0  0  0  0  0  0
   -0.7014   -1.2307    1.2436 H   0  0  0  0  0  0  0  0  0  0  0  0
   -1.4564   -1.5759   -0.3122 H   0  0  0  0  0  0  0  0  0  0  0  0
   -1.2750    0.8833    0.2041 H   0  0  0  0  0  0  0  0  0  0  0  0
   -0.4733    0.4428   -1.3050 H   0  0  0  0  0  0  0  0  0  0  0  0
  1  2  2  0  0  0  0
  2  3  1  0  0  0  0
  2 11  1  0  0  0  0
  3 10  1  0  0  0  0
  3  4  1  0  0  0  0
  4  5  1  0  0  0  0
  4 12  1  0  0  0  0
  4 13  1  0  0  0  0
  5  6  1  0  0  0  0
  5 14  1  0  0  0  0
  5 15  1  0  0  0  0
  6  7  1  0  0  0  0
  6  9  1  0  0  0  0
  6 16  1  0  0  0  0
  7  8  1  0  0  0  0
  7 17  1  0  0  0  0
  7 18  1  0  0  0  0
  8 19  1  0  0  0  0
  9 10  1  0  0  0  0
  9 20  1  0  0  0  0
  9 21  1  0  0  0  0
 10 22  1  0  0  0  0
 10 23  1  0  0  0  0
M  END
$$$$
