
 OpenBabel03202621332D

 25 26  0  0  1  0  0  0  0  0999 V2000
    3.9314    2.5749    0.0000 C   0  0  0  0  0  0  0  0  0  0  0  0
    3.4602    1.7586    0.0000 S   0  0  0  0  0  0  0  0  0  0  0  0
    1.8657    1.7499    0.6653 C   0  0  0  0  0  0  0  0  0  0  0  0
    0.9324    3.0639    1.0826 S   0  0  0  0  0  0  0  0  0  0  0  0
    1.4812    0.4361    0.8364 N   0  0  0  0  0  0  0  0  0  0  0  0
    0.6938   -0.2030   -0.2176 C   0  0  2  0  0  0  0  0  0  0  0  0
    0.4772   -1.7262    0.0400 C   0  0  0  0  0  0  0  0  0  0  0  0
   -1.0410   -1.8922   -0.1870 C   0  0  1  0  0  0  0  0  0  0  0  0
   -1.7457   -1.2120    0.9601 C   0  0  0  0  0  0  0  0  0  0  0  0
   -1.5705    0.1079    0.8087 C   0  0  0  0  0  0  0  0  0  0  0  0
   -0.7515    0.3103   -0.4452 C   0  0  1  0  0  0  0  0  0  0  0  0
   -1.3068   -0.8522   -1.2793 C   0  0  0  0  0  0  0  0  0  0  0  0
    4.9654    2.1878   -0.0782 H   0  0  0  0  0  0  0  0  0  0  0  0
    3.6412    2.9623   -0.9978 H   0  0  0  0  0  0  0  0  0  0  0  0
    4.4663    3.5016    0.0000 H   0  0  0  0  0  0  0  0  0  0  0  0
    2.3220   -0.1143    0.9612 H   0  0  0  0  0  0  0  0  0  0  0  0
    1.2605   -0.0860   -1.1523 H   0  0  0  0  0  0  0  0  0  0  0  0
    0.7860   -2.0411    1.0437 H   0  0  0  0  0  0  0  0  0  0  0  0
    1.0467   -2.3092   -0.6931 H   0  0  0  0  0  0  0  0  0  0  0  0
   -1.3835   -2.9034   -0.4080 H   0  0  0  0  0  0  0  0  0  0  0  0
   -2.2386   -1.7071    1.7848 H   0  0  0  0  0  0  0  0  0  0  0  0
   -1.8880    0.8870    1.4853 H   0  0  0  0  0  0  0  0  0  0  0  0
   -0.8519    1.2894   -0.9146 H   0  0  0  0  0  0  0  0  0  0  0  0
   -2.3698   -0.7408   -1.5302 H   0  0  0  0  0  0  0  0  0  0  0  0
   -0.7401   -1.0360   -2.1999 H   0  0  0  0  0  0  0  0  0  0  0  0
  1  2  1  0  0  0  0
  1 13  1  0  0  0  0
  1 14  1  0  0  0  0
  1 15  1  0  0  0  0
  2  3  1  0  0  0  0
  3  4  2  0  0  0  0
  3  5  1  0  0  0  0
  5 16  1  0  0  0  0
  6  5  1  0  0  0  0
  6  7  1  0  0  0  0
  6 11  1  0  0  0  0
  6 17  1  1  0  0  0
  7 18  1  0  0  0  0
  7 19  1  0  0  0  0
  8  7  1  0  0  0  0
  8  9  1  0  0  0  0
  8 12  1  0  0  0  0
  8 20  1  6  0  0  0
  9 10  2  0  0  0  0
  9 21  1  0  0  0  0
 10 22  1  0  0  0  0
 11 10  1  0  0  0  0
 11 12  1  0  0  0  0
 11 23  1  1  0  0  0
 12 24  1  0  0  0  0
 12 25  1  0  0  0  0
M  END
$$$$
