
 OpenBabel03202621392D

 18 18  0  0  1  0  0  0  0  0999 V2000
    2.7321   -1.0000    0.0000 C   0  0  0  0  0  0  0  0  0  0  0  0
    2.7321    0.0000    0.0000 S   0  0  0  0  0  0  0  0  0  0  0  0
    1.8940    0.4837    1.4036 C   0  0  0  0  0  0  0  0  0  0  0  0
    2.1938    1.3880    2.1628 O   0  0  0  0  0  0  0  0  0  0  0  0
    0.6100   -0.2104    1.4163 C   0  0  1  0  0  0  0  0  0  0  0  0
    0.1051   -1.4055    0.6357 C   0  0  0  0  0  0  0  0  0  0  0  0
    0.0000    0.0000    0.0000 C   0  0  2  0  0  0  0  0  0  0  0  0
   -0.8660    0.5000    0.0000 C   0  0  0  0  0  0  0  0  0  0  0  0
    3.3054   -1.2163    0.9312 H   0  0  0  0  0  0  0  0  0  0  0  0
    3.4526   -1.1669   -0.8248 H   0  0  0  0  0  0  0  0  0  0  0  0
    2.7321   -2.0700    0.0000 H   0  0  0  0  0  0  0  0  0  0  0  0
    0.0322    0.0094    2.3073 H   0  0  0  0  0  0  0  0  0  0  0  0
    0.7036   -2.1551    0.1583 H   0  0  0  0  0  0  0  0  0  0  0  0
   -0.7758   -1.9015    1.0426 H   0  0  0  0  0  0  0  0  0  0  0  0
    0.4833    0.0890   -0.9629 H   0  0  0  0  0  0  0  0  0  0  0  0
   -0.5924    1.4276    0.5543 H   0  0  0  0  0  0  0  0  0  0  0  0
   -1.5967   -0.1536    0.5285 H   0  0  0  0  0  0  0  0  0  0  0  0
   -1.7926    1.0350    0.0000 H   0  0  0  0  0  0  0  0  0  0  0  0
  1  2  1  0  0  0  0
  1  9  1  0  0  0  0
  1 10  1  0  0  0  0
  1 11  1  0  0  0  0
  2  3  1  0  0  0  0
  3  4  2  0  0  0  0
  5  3  1  0  0  0  0
  5  6  1  0  0  0  0
  5  7  1  0  0  0  0
  5 12  1  6  0  0  0
  6  7  1  0  0  0  0
  6 13  1  0  0  0  0
  6 14  1  0  0  0  0
  7  8  1  0  0  0  0
  7 15  1  1  0  0  0
  8 16  1  0  0  0  0
  8 17  1  0  0  0  0
  8 18  1  0  0  0  0
M  END
$$$$
