
 OpenBabel03202621382D

 44 45  0  0  1  0  0  0  0  0999 V2000
    2.5981   -0.5000    0.0000 C   0  0  0  0  0  0  0  0  0  0  0  0
    1.7321    0.0000    0.0000 O   0  0  0  0  0  0  0  0  0  0  0  0
    1.3176   -0.7471   -1.4214 C   0  0  0  0  0  0  0  0  0  0  0  0
    1.5622   -2.1529   -1.3915 C   0  0  0  0  0  0  0  0  0  0  0  0
    0.5907   -2.9518   -0.8380 C   0  0  0  0  0  0  0  0  0  0  0  0
   -0.5854   -2.3197   -0.4594 C   0  0  0  0  0  0  0  0  0  0  0  0
   -0.8889   -0.9925   -0.8873 C   0  0  0  0  0  0  0  0  0  0  0  0
   -1.7321    0.0000    0.0000 C   0  0  1  0  0  0  0  0  0  0  0  0
   -1.7321    1.0000    0.0000 C   0  0  0  0  0  0  0  0  0  0  0  0
   -2.2946   -0.3521    1.3580 O   0  0  0  0  0  0  0  0  0  0  0  0
   -3.0395   -1.5787    1.4360 C   0  0  0  0  0  0  0  0  0  0  0  0
   -3.4641   -2.0000    0.0000 C   0  0  2  0  0  0  0  0  0  0  0  0
   -4.9105   -1.4802   -0.6617 C   0  0  0  0  0  0  0  0  0  0  0  0
   -4.9320   -0.0844   -1.0831 O   0  0  0  0  0  0  0  0  0  0  0  0
   -3.4641   -3.0000    0.0000 O   0  0  0  0  0  0  0  0  0  0  0  0
   -4.3994   -4.0167    0.1986 C   0  0  0  0  0  0  0  0  0  0  0  0
   -4.1913   -5.1702   -0.4698 C   0  0  0  0  0  0  0  0  0  0  0  0
   -5.0895   -6.2013   -0.6105 O   0  0  0  0  0  0  0  0  0  0  0  0
   -6.4602   -5.8161   -0.3748 C   0  0  0  0  0  0  0  0  0  0  0  0
   -6.6455   -4.7101    0.6095 C   0  0  0  0  0  0  0  0  0  0  0  0
   -5.6551   -3.8935    0.9954 C   0  0  0  0  0  0  0  0  0  0  0  0
   -5.6318   -3.0758    1.9412 O   0  5  0  0  0  0  0  0  0  0  0  0
    0.0385   -0.3734   -1.7234 C   0  0  0  0  0  0  0  0  0  0  0  0
    2.5910   -0.8624    1.0501 H   0  0  0  0  0  0  0  0  0  0  0  0
    3.3000    0.3607   -0.0355 H   0  0  0  0  0  0  0  0  0  0  0  0
    3.5247   -1.0350    0.0000 H   0  0  0  0  0  0  0  0  0  0  0  0
    2.5631   -2.5518   -1.5373 H   0  0  0  0  0  0  0  0  0  0  0  0
    0.8042   -3.9698   -0.5249 H   0  0  0  0  0  0  0  0  0  0  0  0
   -1.1585   -2.8434    0.2926 H   0  0  0  0  0  0  0  0  0  0  0  0
   -0.7845   -0.0511    0.5929 H   0  0  0  0  0  0  0  0  0  0  0  0
   -0.8634    1.3257   -0.5989 H   0  0  0  0  0  0  0  0  0  0  0  0
   -2.6422    1.1539   -0.6210 H   0  0  0  0  0  0  0  0  0  0  0  0
   -1.7321    2.0700    0.0000 H   0  0  0  0  0  0  0  0  0  0  0  0
   -2.4066   -2.3145    1.9493 H   0  0  0  0  0  0  0  0  0  0  0  0
   -3.8801   -1.3656    2.1002 H   0  0  0  0  0  0  0  0  0  0  0  0
   -3.4641   -0.9300    0.0000 H   0  0  0  0  0  0  0  0  0  0  0  0
   -5.1476   -2.0647   -1.5572 H   0  0  0  0  0  0  0  0  0  0  0  0
   -5.7452   -1.5469    0.0353 H   0  0  0  0  0  0  0  0  0  0  0  0
   -5.0475    0.4097   -0.2494 H   0  0  0  0  0  0  0  0  0  0  0  0
   -3.2808   -5.3810   -1.0045 H   0  0  0  0  0  0  0  0  0  0  0  0
   -6.9170   -5.5605   -1.3360 H   0  0  0  0  0  0  0  0  0  0  0  0
   -6.9689   -6.7075    0.0058 H   0  0  0  0  0  0  0  0  0  0  0  0
   -7.6150   -4.6184    1.0848 H   0  0  0  0  0  0  0  0  0  0  0  0
   -0.1027    0.6240   -2.1274 H   0  0  0  0  0  0  0  0  0  0  0  0
  1  2  1  0  0  0  0
  1 24  1  0  0  0  0
  1 25  1  0  0  0  0
  1 26  1  0  0  0  0
  2  3  1  0  0  0  0
  3 23  2  0  0  0  0
  3  4  1  0  0  0  0
  4  5  2  0  0  0  0
  4 27  1  0  0  0  0
  5  6  1  0  0  0  0
  5 28  1  0  0  0  0
  6  7  2  0  0  0  0
  6 29  1  0  0  0  0
  7  8  1  0  0  0  0
  7 23  1  0  0  0  0
  8  9  1  0  0  0  0
  8 10  1  0  0  0  0
  8 30  1  1  0  0  0
  9 31  1  0  0  0  0
  9 32  1  0  0  0  0
  9 33  1  0  0  0  0
 10 11  1  0  0  0  0
 11 34  1  0  0  0  0
 11 35  1  0  0  0  0
 12 11  1  0  0  0  0
 12 13  1  0  0  0  0
 12 15  1  0  0  0  0
 12 36  1  6  0  0  0
 13 14  1  0  0  0  0
 13 37  1  0  0  0  0
 13 38  1  0  0  0  0
 14 39  1  0  0  0  0
 15 16  1  0  0  0  0
 16 21  1  0  0  0  0
 16 17  2  0  0  0  0
 17 18  1  0  0  0  0
 17 40  1  0  0  0  0
 18 19  1  0  0  0  0
 19 20  1  0  0  0  0
 19 41  1  0  0  0  0
 19 42  1  0  0  0  0
 20 21  2  0  0  0  0
 20 43  1  0  0  0  0
 21 22  1  0  0  0  0
 23 44  1  0  0  0  0
M  CHG  1  22  -1
M  END
$$$$
