
 OpenBabel03202621352D

 26 26  0  0  1  0  0  0  0  0999 V2000
    1.9288    4.2397   -0.3909 C   0  0  0  0  0  0  0  0  0  0  0  0
    1.2676    3.4079   -1.8296 S   0  0  0  0  0  0  0  0  0  0  0  0
    0.5570    1.8542   -1.2786 C   0  0  0  0  0  0  0  0  0  0  0  0
   -0.4610    1.5064   -1.8633 O   0  0  0  0  0  0  0  0  0  0  0  0
    1.2588    0.9659    0.0000 C   0  0  1  0  0  0  0  0  0  0  0  0
    2.2247    0.7071    0.0000 C   0  0  0  0  0  0  0  0  0  0  0  0
    0.7002    1.7663    1.2179 N   0  0  0  0  0  0  0  0  0  0  0  0
    1.0000    0.0000    0.0000 C   0  0  0  0  0  0  0  0  0  0  0  0
    1.9968   -0.0802    0.0000 C   0  0  0  0  0  0  0  0  0  0  0  0
    0.0102   -1.0802   -0.5917 C   0  0  0  0  0  0  0  0  0  0  0  0
   -0.2679   -0.5710    0.7580 C   0  0  0  0  0  0  0  0  0  0  0  0
    2.6802    3.6295    0.1343 H   0  0  0  0  0  0  0  0  0  0  0  0
    1.1420    4.5476    0.3090 H   0  0  0  0  0  0  0  0  0  0  0  0
    2.4349    5.1462   -0.7325 H   0  0  0  0  0  0  0  0  0  0  0  0
    2.6597    1.3915   -0.9497 H   0  0  0  0  0  0  0  0  0  0  0  0
    2.7264    1.5213    0.7819 H   0  0  0  0  0  0  0  0  0  0  0  0
    3.2582    0.4302    0.0000 H   0  0  0  0  0  0  0  0  0  0  0  0
    0.3015    2.6541    0.9167 H   0  0  0  0  0  0  0  0  0  0  0  0
    1.3876    1.9379    1.9424 H   0  0  0  0  0  0  0  0  0  0  0  0
    2.1437   -0.9089   -0.9414 H   0  0  0  0  0  0  0  0  0  0  0  0
    2.0995   -0.9690    0.8711 H   0  0  0  0  0  0  0  0  0  0  0  0
    3.0634   -0.1660    0.0000 H   0  0  0  0  0  0  0  0  0  0  0  0
    0.3099   -2.1261   -0.6253 H   0  0  0  0  0  0  0  0  0  0  0  0
   -0.6577   -0.8149   -1.4051 H   0  0  0  0  0  0  0  0  0  0  0  0
   -1.1593    0.0482    0.8387 H   0  0  0  0  0  0  0  0  0  0  0  0
   -0.1080   -1.1852    1.6303 H   0  0  0  0  0  0  0  0  0  0  0  0
  1  2  1  0  0  0  0
  1 12  1  0  0  0  0
  1 13  1  0  0  0  0
  1 14  1  0  0  0  0
  2  3  1  0  0  0  0
  3  4  2  0  0  0  0
  5  3  1  6  0  0  0
  5  6  1  0  0  0  0
  5  7  1  0  0  0  0
  5  8  1  0  0  0  0
  6 15  1  0  0  0  0
  6 16  1  0  0  0  0
  6 17  1  0  0  0  0
  7 18  1  0  0  0  0
  7 19  1  0  0  0  0
  8 11  1  0  0  0  0
  8  9  1  0  0  0  0
  8 10  1  0  0  0  0
  9 20  1  0  0  0  0
  9 21  1  0  0  0  0
  9 22  1  0  0  0  0
 10 11  1  0  0  0  0
 10 23  1  0  0  0  0
 10 24  1  0  0  0  0
 11 25  1  0  0  0  0
 11 26  1  0  0  0  0
M  END
$$$$
