
 OpenBabel03202621282D

 11 12  0  0  1  0  0  0  0  0999 V2000
    3.6605    0.9377    0.0000 C   0  0  0  0  0  0  0  0  0  0  0  0
    2.8483    0.4688    0.0000 S   0  0  0  0  0  0  0  0  0  0  0  0
    2.0362    0.9377    0.0000 C   0  0  0  0  0  0  0  0  0  0  0  0
    2.0362    1.8755    0.0000 O   0  0  0  0  0  0  0  0  0  0  0  0
    1.2240    0.4688    0.0000 C   0  0  1  0  0  0  0  0  0  0  0  0
    1.2241   -0.4690    0.0000 C   0  0  0  0  0  3  0  0  0  0  0  0
    0.4118   -0.9380    0.0000 C   0  0  1  0  0  0  0  0  0  0  0  0
   -0.4005   -0.4690    0.0000 C   0  0  0  0  0  0  0  0  0  0  0  0
   -0.4005    0.4688    0.0000 C   0  0  0  0  0  0  0  0  0  0  0  0
    0.4118    0.9378    0.0000 C   0  0  1  0  0  0  0  0  0  0  0  0
    0.0000   -0.0000    0.0000 C   0  0  0  0  0  0  0  0  0  0  0  0
  1  2  1  0  0  0  0
  2  3  1  0  0  0  0
  3  4  2  0  0  0  0
  5  3  1  1  0  0  0
  5  6  1  0  0  0  0
  5 10  1  0  0  0  0
  7  6  1  1  0  0  0
  7  8  1  0  0  0  0
  7 11  1  0  0  0  0
  8  9  1  0  0  0  0
 10  9  1  6  0  0  0
 10 11  1  0  0  0  0
M  END
$$$$
