
 OpenBabel03202621322D

 33 34  0  0  1  0  0  0  0  0999 V2000
    2.8958   -1.9886    0.0000 C   0  0  0  0  0  0  0  0  0  0  0  0
    3.4836   -1.1796    0.0000 S   0  0  0  0  0  0  0  0  0  0  0  0
    2.9683    0.3643    0.7653 C   0  0  0  0  0  0  0  0  0  0  0  0
    2.6855    1.4666   -0.2990 C   0  0  1  0  0  0  0  0  0  0  0  0
    2.3015    2.6801    0.3694 O   0  0  0  0  0  0  0  0  0  0  0  0
    1.6180    1.1083   -1.3423 C   0  0  0  0  0  0  0  0  0  0  0  0
    0.5652    0.3695   -0.6930 N   0  0  0  0  0  0  0  0  0  0  0  0
    0.1643   -0.9004   -0.9679 C   0  0  0  0  0  0  0  0  0  0  0  0
   -0.4614   -1.2704    0.2057 C   0  0  0  0  0  0  0  0  0  0  0  0
   -1.6882   -2.0147    0.1553 C   0  0  0  0  0  0  0  0  0  0  0  0
   -1.6429   -3.3761    0.1654 N   0  0  0  0  0  0  0  0  0  0  0  0
   -2.8434   -3.9743    0.0451 C   0  0  0  0  0  0  0  0  0  0  0  0
   -4.0029   -3.2488   -0.1140 C   0  0  0  0  0  0  0  0  0  0  0  0
   -4.0048   -1.8925   -0.1458 N   0  0  0  0  0  0  0  0  0  0  0  0
   -2.8147   -1.2024    0.0000 C   0  0  0  0  0  0  0  0  0  0  0  0
   -2.8147   -0.2024    0.0000 C   0  0  0  0  0  0  0  0  0  0  0  0
   -0.3256   -0.2744    1.1421 N   0  0  0  0  0  0  0  0  0  0  0  0
    0.1327    0.7925    0.5132 N   0  0  0  0  0  0  0  0  0  0  0  0
    2.9558   -2.2583    1.0731 H   0  0  0  0  0  0  0  0  0  0  0  0
    3.5556   -2.6793   -0.5580 H   0  0  0  0  0  0  0  0  0  0  0  0
    2.2669   -2.8542    0.0000 H   0  0  0  0  0  0  0  0  0  0  0  0
    3.8346    0.7256    1.3349 H   0  0  0  0  0  0  0  0  0  0  0  0
    2.2054    0.2344    1.5340 H   0  0  0  0  0  0  0  0  0  0  0  0
    3.6091    1.7109   -0.8373 H   0  0  0  0  0  0  0  0  0  0  0  0
    1.4690    2.4840    0.8485 H   0  0  0  0  0  0  0  0  0  0  0  0
    1.1548    1.9914   -1.7937 H   0  0  0  0  0  0  0  0  0  0  0  0
    2.0278    0.4777   -2.1389 H   0  0  0  0  0  0  0  0  0  0  0  0
    0.2311   -1.3550   -1.9452 H   0  0  0  0  0  0  0  0  0  0  0  0
   -2.8519   -5.0576    0.0795 H   0  0  0  0  0  0  0  0  0  0  0  0
   -4.9712   -3.7245   -0.2205 H   0  0  0  0  0  0  0  0  0  0  0  0
   -3.5042   -0.0030    0.8547 H   0  0  0  0  0  0  0  0  0  0  0  0
   -3.2848   -0.0024   -0.9923 H   0  0  0  0  0  0  0  0  0  0  0  0
   -2.8147    0.8676    0.0000 H   0  0  0  0  0  0  0  0  0  0  0  0
  1  2  1  0  0  0  0
  1 19  1  0  0  0  0
  1 20  1  0  0  0  0
  1 21  1  0  0  0  0
  2  3  1  0  0  0  0
  3  4  1  0  0  0  0
  3 22  1  0  0  0  0
  3 23  1  0  0  0  0
  4  5  1  0  0  0  0
  4  6  1  0  0  0  0
  4 24  1  1  0  0  0
  5 25  1  0  0  0  0
  6  7  1  0  0  0  0
  6 26  1  0  0  0  0
  6 27  1  0  0  0  0
  7 18  1  0  0  0  0
  7  8  1  0  0  0  0
  8  9  2  0  0  0  0
  8 28  1  0  0  0  0
  9 10  1  0  0  0  0
  9 17  1  0  0  0  0
 10 15  2  0  0  0  0
 10 11  1  0  0  0  0
 11 12  2  0  0  0  0
 12 13  1  0  0  0  0
 12 29  1  0  0  0  0
 13 14  2  0  0  0  0
 13 30  1  0  0  0  0
 14 15  1  0  0  0  0
 15 16  1  0  0  0  0
 16 31  1  0  0  0  0
 16 32  1  0  0  0  0
 16 33  1  0  0  0  0
 17 18  2  0  0  0  0
M  END
$$$$
