
 OpenBabel03202621372D

 30 31  0  0  1  0  0  0  0  0999 V2000
    0.8660    3.5000    0.0000 C   0  0  0  0  0  0  0  0  0  0  0  0
    0.0000    3.0000    0.0000 S   0  0  0  0  0  0  0  0  0  0  0  0
    0.2868    1.5169    0.8461 C   0  0  0  0  0  0  0  0  0  0  0  0
    0.1147    1.4021    2.0462 O   0  0  0  0  0  0  0  0  0  0  0  0
    0.7061    0.5450   -0.0174 N   0  0  0  0  0  0  0  0  0  0  0  0
    0.7710   -0.8425    0.3917 C   0  0  1  0  0  0  0  0  0  0  0  0
    2.0073   -1.5038   -0.2303 C   0  0  0  0  0  0  0  0  0  0  0  0
    2.0824   -2.9592    0.2108 C   0  0  0  0  0  0  0  0  0  0  0  0
    0.8614   -3.7485   -0.2602 C   0  0  0  0  0  0  0  0  0  0  0  0
   -0.4444   -2.9880   -0.2148 C   0  0  0  0  0  0  0  0  0  0  0  0
   -1.6310   -3.6878   -0.4870 C   0  0  0  0  0  0  0  0  0  0  0  0
   -2.8598   -3.0296   -0.5168 C   0  0  0  0  0  0  0  0  0  0  0  0
   -2.9190   -1.6649   -0.2731 C   0  0  0  0  0  0  0  0  0  0  0  0
   -1.7513   -0.9614    0.0112 C   0  0  0  0  0  0  0  0  0  0  0  0
   -0.4969   -1.6022    0.0317 C   0  0  0  0  0  0  0  0  0  0  0  0
    0.6785    4.1821    0.8536 H   0  0  0  0  0  0  0  0  0  0  0  0
    0.7293    4.0800   -0.9326 H   0  0  0  0  0  0  0  0  0  0  0  0
    1.7926    4.0350    0.0000 H   0  0  0  0  0  0  0  0  0  0  0  0
    0.6385    0.7541   -1.0027 H   0  0  0  0  0  0  0  0  0  0  0  0
    0.8684   -0.8800    1.4848 H   0  0  0  0  0  0  0  0  0  0  0  0
    2.9163   -0.9755    0.0838 H   0  0  0  0  0  0  0  0  0  0  0  0
    1.9728   -1.4450   -1.3265 H   0  0  0  0  0  0  0  0  0  0  0  0
    2.9943   -3.4288   -0.1757 H   0  0  0  0  0  0  0  0  0  0  0  0
    2.1485   -3.0012    1.3058 H   0  0  0  0  0  0  0  0  0  0  0  0
    0.7772   -4.6562    0.3476 H   0  0  0  0  0  0  0  0  0  0  0  0
    1.0267   -4.0613   -1.2977 H   0  0  0  0  0  0  0  0  0  0  0  0
   -1.6017   -4.7578   -0.6803 H   0  0  0  0  0  0  0  0  0  0  0  0
   -3.7699   -3.5822   -0.7288 H   0  0  0  0  0  0  0  0  0  0  0  0
   -3.8717   -1.1427   -0.2944 H   0  0  0  0  0  0  0  0  0  0  0  0
   -1.8450    0.1003    0.2214 H   0  0  0  0  0  0  0  0  0  0  0  0
  1  2  1  0  0  0  0
  1 16  1  0  0  0  0
  1 17  1  0  0  0  0
  1 18  1  0  0  0  0
  2  3  1  0  0  0  0
  3  4  2  0  0  0  0
  3  5  1  0  0  0  0
  5 19  1  0  0  0  0
  6  5  1  0  0  0  0
  6  7  1  0  0  0  0
  6 15  1  0  0  0  0
  6 20  1  6  0  0  0
  7  8  1  0  0  0  0
  7 21  1  0  0  0  0
  7 22  1  0  0  0  0
  8  9  1  0  0  0  0
  8 23  1  0  0  0  0
  8 24  1  0  0  0  0
  9 10  1  0  0  0  0
  9 25  1  0  0  0  0
  9 26  1  0  0  0  0
 10 15  2  0  0  0  0
 10 11  1  0  0  0  0
 11 12  2  0  0  0  0
 11 27  1  0  0  0  0
 12 13  1  0  0  0  0
 12 28  1  0  0  0  0
 13 14  2  0  0  0  0
 13 29  1  0  0  0  0
 14 15  1  0  0  0  0
 14 30  1  0  0  0  0
M  END
$$$$
