
 OpenBabel03202621282D

 21 24  0  0  1  0  0  0  0  0999 V2000
    0.8090   -1.5878    0.0000 C   0  0  0  0  0  0  0  0  0  0  0  0
   -0.0000   -1.0000    0.0000 C   0  0  0  0  0  0  0  0  0  0  0  0
   -0.9511   -1.3090    0.0000 C   0  0  0  0  0  0  0  0  0  0  0  0
   -1.5388   -0.5000    0.0000 N   0  0  0  0  0  0  0  0  0  0  0  0
   -2.5388   -0.5000    0.0000 C   0  0  0  0  0  0  0  0  0  0  0  0
   -3.0388   -1.3660    0.0000 C   0  0  0  0  0  0  0  0  0  0  0  0
   -4.0388   -1.3660    0.0000 C   0  0  0  0  0  0  0  0  0  0  0  0
   -4.5388   -0.5000    0.0000 C   0  0  0  0  0  0  0  0  0  0  0  0
   -5.5388   -0.5000    0.0000 C   0  0  0  0  0  0  0  0  0  0  0  0
   -6.1266   -1.3090    0.0000 N   0  0  0  0  0  0  0  0  0  0  0  0
   -7.0777   -1.0000    0.0000 N   0  0  0  0  0  0  0  0  0  0  0  0
   -7.0777    0.0000    0.0000 C   0  0  0  0  0  0  0  0  0  0  0  0
   -7.8867    0.5878    0.0000 C   0  0  2  0  0  0  0  0  0  0  0  0
   -8.8812    0.6923    0.0000 C   0  0  0  0  0  0  0  0  0  0  0  0
   -8.2934    1.5013    0.0000 C   0  0  1  0  0  0  0  0  0  0  0  0
   -8.1889    2.4959    0.0000 C   0  0  0  0  0  0  0  0  0  0  0  0
   -6.1266    0.3090    0.0000 O   0  0  0  0  0  0  0  0  0  0  0  0
   -4.0388    0.3660    0.0000 C   0  0  0  0  0  0  0  0  0  0  0  0
   -3.0388    0.3660    0.0000 C   0  0  0  0  0  0  0  0  0  0  0  0
   -0.9511    0.3090    0.0000 N   0  0  0  0  0  0  0  0  0  0  0  0
    0.0000    0.0000    0.0000 N   0  0  0  0  0  0  0  0  0  0  0  0
  1  2  1  0  0  0  0
  2 21  1  0  0  0  0
  2  3  2  0  0  0  0
  3  4  1  0  0  0  0
  4  5  1  0  0  0  0
  4 20  1  0  0  0  0
  5 19  2  0  0  0  0
  5  6  1  0  0  0  0
  6  7  2  0  0  0  0
  7  8  1  0  0  0  0
  8  9  1  0  0  0  0
  8 18  2  0  0  0  0
  9 17  1  0  0  0  0
  9 10  2  0  0  0  0
 10 11  1  0  0  0  0
 11 12  2  0  0  0  0
 12 17  1  0  0  0  0
 13 12  1  6  0  0  0
 13 14  1  0  0  0  0
 13 15  1  0  0  0  0
 14 15  1  0  0  0  0
 15 16  1  1  0  0  0
 18 19  1  0  0  0  0
 20 21  2  0  0  0  0
M  END
$$$$
