
 OpenBabel03202621302D

 44 46  0  0  1  0  0  0  0  0999 V2000
    0.8695    1.5292    0.0000 C   0  0  0  0  0  0  0  0  0  0  0  0
    0.8695    0.5020    0.0000 C   0  0  0  0  0  0  0  0  0  0  0  0
   -0.0201    1.0156    0.0000 C   0  0  0  0  0  0  0  0  0  0  0  0
    2.0369   -0.4440   -0.5406 C   0  0  2  0  0  0  0  0  0  0  0  0
    2.5792   -1.3070    0.6568 C   0  0  0  0  0  0  0  0  0  0  0  0
    1.3397   -2.1697    0.9372 C   0  0  0  0  0  0  0  0  0  0  0  0
    0.5252   -1.6477   -0.2585 C   0  0  2  0  0  0  0  0  0  0  0  0
    1.4617   -1.5430   -1.4658 C   0  0  0  0  0  0  0  0  0  0  0  0
    0.0000    0.0000    0.0000 C   0  0  2  0  0  0  0  0  0  0  0  0
   -0.8896    0.5136    0.0000 C   0  0  0  0  0  0  0  0  0  0  0  0
   -0.8695   -0.5020    0.0000 N   0  0  0  0  0  0  0  0  0  0  0  0
   -2.2010   -0.6813   -1.1121 C   0  0  0  0  0  0  0  0  0  0  0  0
   -2.1811   -0.5474   -2.8186 S   0  0  0  0  0  0  0  0  0  0  0  0
   -3.4563   -0.3632   -0.4846 O   0  0  0  0  0  0  0  0  0  0  0  0
   -4.2703    0.9225   -0.4505 C   0  0  0  0  0  0  0  0  0  0  0  0
   -5.6013    0.9202   -0.2716 C   0  0  0  0  0  0  0  0  0  0  0  0
   -6.4077    2.0226   -0.0752 O   0  0  0  0  0  0  0  0  0  0  0  0
   -5.8139    3.3420   -0.1807 C   0  0  0  0  0  0  0  0  0  0  0  0
   -4.3701    3.3692   -0.6057 C   0  0  0  0  0  0  0  0  0  0  0  0
   -3.6664    2.2699   -0.2710 C   0  0  0  0  0  0  0  0  0  0  0  0
   -3.0847    2.3593    0.9807 O   0  0  0  0  0  0  0  0  0  0  0  0
    1.7637    1.7111    0.7375 H   0  0  0  0  0  0  0  0  0  0  0  0
    1.4486    1.7679   -1.0137 H   0  0  0  0  0  0  0  0  0  0  0  0
    0.8695    2.5992    0.0000 H   0  0  0  0  0  0  0  0  0  0  0  0
   -0.3756    2.1578    0.9130 H   0  0  0  0  0  0  0  0  0  0  0  0
    0.0806    0.9330    1.5212 H   0  0  0  0  0  0  0  0  0  0  0  0
   -0.9468    1.5506    0.0000 H   0  0  0  0  0  0  0  0  0  0  0  0
    2.8496    0.0685   -1.0549 H   0  0  0  0  0  0  0  0  0  0  0  0
    2.9171   -0.7473    1.5161 H   0  0  0  0  0  0  0  0  0  0  0  0
    3.3857   -1.9903    0.3436 H   0  0  0  0  0  0  0  0  0  0  0  0
    1.5695   -3.1960    0.8159 H   0  0  0  0  0  0  0  0  0  0  0  0
    0.8162   -1.9966    1.8673 H   0  0  0  0  0  0  0  0  0  0  0  0
   -0.2825   -2.4072   -0.4634 H   0  0  0  0  0  0  0  0  0  0  0  0
    2.4375   -2.0728   -1.5448 H   0  0  0  0  0  0  0  0  0  0  0  0
    1.1271   -2.5727   -1.7243 H   0  0  0  0  0  0  0  0  0  0  0  0
   -1.1592    0.9665   -1.3456 H   0  0  0  0  0  0  0  0  0  0  0  0
   -1.5951    0.5421    1.2128 H   0  0  0  0  0  0  0  0  0  0  0  0
   -1.8163    1.0486    0.0000 H   0  0  0  0  0  0  0  0  0  0  0  0
   -1.1858   -1.1270    0.8025 H   0  0  0  0  0  0  0  0  0  0  0  0
   -6.1805    0.0084   -0.1948 H   0  0  0  0  0  0  0  0  0  0  0  0
   -6.4343    3.9383   -0.8576 H   0  0  0  0  0  0  0  0  0  0  0  0
   -5.8783    3.8234    0.8068 H   0  0  0  0  0  0  0  0  0  0  0  0
   -3.9196    4.3401   -0.4374 H   0  0  0  0  0  0  0  0  0  0  0  0
   -2.3539    2.9742    0.9012 H   0  0  0  0  0  0  0  0  0  0  0  0
  1  2  1  0  0  0  0
  1 22  1  0  0  0  0
  1 23  1  0  0  0  0
  1 24  1  0  0  0  0
  2  9  1  0  0  0  0
  2  3  1  0  0  0  0
  2  4  1  0  0  0  0
  3 25  1  0  0  0  0
  3 26  1  0  0  0  0
  3 27  1  0  0  0  0
  4  5  1  0  0  0  0
  4  8  1  0  0  0  0
  4 28  1  1  0  0  0
  5  6  1  0  0  0  0
  5 29  1  0  0  0  0
  5 30  1  0  0  0  0
  6 31  1  0  0  0  0
  6 32  1  0  0  0  0
  7  6  1  0  0  0  0
  7  8  1  0  0  0  0
  7  9  1  0  0  0  0
  7 33  1  6  0  0  0
  8 34  1  0  0  0  0
  8 35  1  0  0  0  0
  9 10  1  6  0  0  0
  9 11  1  0  0  0  0
 10 36  1  0  0  0  0
 10 37  1  0  0  0  0
 10 38  1  0  0  0  0
 11 12  1  0  0  0  0
 11 39  1  0  0  0  0
 12 13  2  0  0  0  0
 12 14  1  0  0  0  0
 14 15  1  0  0  0  0
 15 20  1  0  0  0  0
 15 16  2  0  0  0  0
 16 17  1  0  0  0  0
 16 40  1  0  0  0  0
 17 18  1  0  0  0  0
 18 19  1  0  0  0  0
 18 41  1  0  0  0  0
 18 42  1  0  0  0  0
 19 20  2  0  0  0  0
 19 43  1  0  0  0  0
 20 21  1  0  0  0  0
 21 44  1  0  0  0  0
M  END
$$$$
