
 OpenBabel03202621382D

 13 12  0  0  0  0  0  0  0  0999 V2000
    2.4754    1.1025   -0.0007 C   0  0  0  0  0  0  0  0  0  0  0  0
    1.3952    1.6283   -0.0295 C   0  0  0  0  0  0  0  0  0  0  0  0
    0.1017    2.2792   -0.0478 C   0  0  0  0  0  0  0  0  0  0  0  0
    0.0915    3.5031   -0.1543 O   0  0  0  0  0  0  0  0  0  0  0  0
   -1.0642    1.5154    0.0484 N   0  0  0  0  0  0  0  0  0  0  0  0
   -2.3244    2.2282    0.1153 C   0  0  0  0  0  0  0  0  0  0  0  0
   -1.1184    0.1334   -0.0709 C   0  0  0  0  0  0  0  0  0  0  0  0
   -0.1938   -0.6632   -0.1302 O   0  0  0  0  0  0  0  0  0  0  0  0
    3.4238    0.6185    0.0295 H   0  0  0  0  0  0  0  0  0  0  0  0
   -2.1995    3.2441    0.4997 H   0  0  0  0  0  0  0  0  0  0  0  0
   -3.0193    1.6877    0.7664 H   0  0  0  0  0  0  0  0  0  0  0  0
   -2.7537    2.2722   -0.8905 H   0  0  0  0  0  0  0  0  0  0  0  0
   -2.1599   -0.2332   -0.0920 H   0  0  0  0  0  0  0  0  0  0  0  0
  1  2  3  0  0  0  0
  1  9  1  0  0  0  0
  2  3  1  0  0  0  0
  3  4  2  0  0  0  0
  3  5  1  0  0  0  0
  5  6  1  0  0  0  0
  5  7  1  0  0  0  0
  6 10  1  0  0  0  0
  6 11  1  0  0  0  0
  6 12  1  0  0  0  0
  7  8  2  0  0  0  0
  7 13  1  0  0  0  0
M  END
$$$$
