
 OpenBabel03202621392D

 41 41  0  0  1  0  0  0  0  0999 V2000
   -5.1962   -5.0000    0.0000 C   0  0  0  0  0  0  0  0  0  0  0  0
   -4.3301   -4.5000    0.0000 C   0  0  0  0  0  0  0  0  0  0  0  0
   -3.1922   -4.8991    0.2539 O   0  0  0  0  0  0  0  0  0  0  0  0
   -4.5258   -3.0229   -0.2029 C   0  0  0  0  0  0  0  0  0  0  0  0
   -3.6122   -2.4129   -1.2105 C   0  0  0  0  0  0  0  0  0  0  0  0
   -3.2404   -3.0033   -2.2261 O   0  0  0  0  0  0  0  0  0  0  0  0
   -3.3827   -0.9321   -1.0389 C   0  0  2  0  0  0  0  0  0  0  0  0
   -2.5355   -0.4245   -2.0497 O   0  0  0  0  0  0  0  0  0  0  0  0
   -2.8819   -0.6134    0.3809 C   0  0  0  0  0  0  0  0  0  0  0  0
   -2.8288   -1.4298    1.3030 O   0  0  0  0  0  0  0  0  0  0  0  0
   -2.4290    0.7765    0.6486 C   0  0  2  0  0  0  0  0  0  0  0  0
   -3.6329    1.7151    0.3747 C   0  0  0  0  0  0  0  0  0  0  0  0
   -4.9631    1.2111    0.9796 C   0  0  0  0  0  0  0  0  0  0  0  0
   -5.9817    2.1899    0.8619 O   0  0  0  0  0  0  0  0  0  0  0  0
   -1.1269    1.0673   -0.1061 C   0  0  0  0  0  0  0  0  0  0  0  0
   -0.9926    2.1157   -0.7359 O   0  0  0  0  0  0  0  0  0  0  0  0
    0.0582    0.1056   -0.0235 C   0  0  0  0  0  0  0  0  0  0  0  0
   -0.0643   -1.2945   -0.1399 C   0  0  0  0  0  0  0  0  0  0  0  0
    1.0406   -2.1540   -0.0924 C   0  0  0  0  0  0  0  0  0  0  0  0
    2.3135   -1.6331    0.0413 C   0  0  0  0  0  0  0  0  0  0  0  0
    2.4721   -0.2538    0.1362 C   0  0  0  0  0  0  0  0  0  0  0  0
    1.3583    0.6138    0.1109 C   0  0  0  0  0  0  0  0  0  0  0  0
    1.6214    2.0080    0.2740 C   0  0  0  0  0  0  0  0  0  0  0  0
    1.9001    3.1225    0.4554 N   0  0  0  0  0  0  0  0  0  0  0  0
   -5.3936   -4.9217   -1.1010 H   0  0  0  0  0  0  0  0  0  0  0  0
   -4.8082   -6.0442    0.1259 H   0  0  0  0  0  0  0  0  0  0  0  0
   -6.1229   -5.5350    0.0000 H   0  0  0  0  0  0  0  0  0  0  0  0
   -5.5388   -2.7946   -0.5725 H   0  0  0  0  0  0  0  0  0  0  0  0
   -4.5089   -2.5765    0.7892 H   0  0  0  0  0  0  0  0  0  0  0  0
   -4.3598   -0.4678   -1.1948 H   0  0  0  0  0  0  0  0  0  0  0  0
   -2.7678   -0.8802   -2.8850 H   0  0  0  0  0  0  0  0  0  0  0  0
   -2.1918    0.8618    1.7170 H   0  0  0  0  0  0  0  0  0  0  0  0
   -3.4212    2.7118    0.7776 H   0  0  0  0  0  0  0  0  0  0  0  0
   -3.7738    1.8673   -0.7037 H   0  0  0  0  0  0  0  0  0  0  0  0
   -4.8485    0.9611    2.0385 H   0  0  0  0  0  0  0  0  0  0  0  0
   -5.3409    0.3125    0.4811 H   0  0  0  0  0  0  0  0  0  0  0  0
   -6.1714    2.3327   -0.0814 H   0  0  0  0  0  0  0  0  0  0  0  0
   -0.9987   -1.8067   -0.3096 H   0  0  0  0  0  0  0  0  0  0  0  0
    0.8916   -3.2307   -0.1743 H   0  0  0  0  0  0  0  0  0  0  0  0
    3.1757   -2.2947    0.0652 H   0  0  0  0  0  0  0  0  0  0  0  0
    3.4789    0.1508    0.2333 H   0  0  0  0  0  0  0  0  0  0  0  0
  1  2  1  0  0  0  0
  1 25  1  0  0  0  0
  1 26  1  0  0  0  0
  1 27  1  0  0  0  0
  2  3  2  0  0  0  0
  2  4  1  0  0  0  0
  4  5  1  0  0  0  0
  4 28  1  0  0  0  0
  4 29  1  0  0  0  0
  5  6  2  0  0  0  0
  5  7  1  0  0  0  0
  7  8  1  0  0  0  0
  7  9  1  0  0  0  0
  7 30  1  6  0  0  0
  8 31  1  0  0  0  0
  9 10  2  0  0  0  0
  9 11  1  0  0  0  0
 11 12  1  0  0  0  0
 11 15  1  0  0  0  0
 11 32  1  1  0  0  0
 12 13  1  0  0  0  0
 12 33  1  0  0  0  0
 12 34  1  0  0  0  0
 13 14  1  0  0  0  0
 13 35  1  0  0  0  0
 13 36  1  0  0  0  0
 14 37  1  0  0  0  0
 15 16  2  0  0  0  0
 15 17  1  0  0  0  0
 17 22  2  0  0  0  0
 17 18  1  0  0  0  0
 18 19  2  0  0  0  0
 18 38  1  0  0  0  0
 19 20  1  0  0  0  0
 19 39  1  0  0  0  0
 20 21  2  0  0  0  0
 20 40  1  0  0  0  0
 21 22  1  0  0  0  0
 21 41  1  0  0  0  0
 22 23  1  0  0  0  0
 23 24  3  0  0  0  0
M  END
$$$$
