
 OpenBabel03202621342D

 26 27  0  0  0  0  0  0  0  0999 V2000
   -3.1459   -4.2950    0.8892 N   0  0  0  0  0  0  0  0  0  0  0  0
   -3.1275   -3.1584    0.6333 C   0  0  0  0  0  0  0  0  0  0  0  0
   -3.2059   -1.7733    0.2728 C   0  0  0  0  0  0  0  0  0  0  0  0
   -4.4741   -1.1892    0.1352 C   0  0  0  0  0  0  0  0  0  0  0  0
   -4.5906    0.1552   -0.2162 C   0  0  0  0  0  0  0  0  0  0  0  0
   -3.4469    0.9217   -0.4327 C   0  0  0  0  0  0  0  0  0  0  0  0
   -3.5631    2.2690   -0.8320 N   0  0  0  0  0  0  0  0  0  0  0  0
   -2.1934    0.2989   -0.4204 C   0  0  0  0  0  0  0  0  0  0  0  0
   -2.0510   -1.0209    0.0237 C   0  0  0  0  0  0  0  0  0  0  0  0
   -0.8509   -1.6632    0.2477 O   0  0  0  0  0  0  0  0  0  0  0  0
    0.3971   -1.0389    0.1906 C   0  0  0  0  0  0  0  0  0  0  0  0
    1.3749   -1.6955   -0.4599 C   0  0  0  0  0  0  0  0  0  0  0  0
    2.6725   -1.2890   -0.6231 O   0  0  0  0  0  0  0  0  0  0  0  0
    2.9277    0.0799   -0.2712 C   0  0  0  0  0  0  0  0  0  0  0  0
    1.9474    0.7092    0.6649 C   0  0  0  0  0  0  0  0  0  0  0  0
    0.7443    0.1825    0.9529 C   0  0  0  0  0  0  0  0  0  0  0  0
   -0.0999    0.5727    1.8003 O   0  5  0  0  0  0  0  0  0  0  0  0
   -5.3724   -1.7753    0.3137 H   0  0  0  0  0  0  0  0  0  0  0  0
   -5.5756    0.6035   -0.3015 H   0  0  0  0  0  0  0  0  0  0  0  0
   -2.6904    2.7565   -0.6212 H   0  0  0  0  0  0  0  0  0  0  0  0
   -4.3386    2.7237   -0.3625 H   0  0  0  0  0  0  0  0  0  0  0  0
   -1.3093    0.8828   -0.6571 H   0  0  0  0  0  0  0  0  0  0  0  0
    1.2186   -2.6632   -0.9133 H   0  0  0  0  0  0  0  0  0  0  0  0
    2.9824    0.6588   -1.1992 H   0  0  0  0  0  0  0  0  0  0  0  0
    3.9220    0.1053    0.1886 H   0  0  0  0  0  0  0  0  0  0  0  0
    2.2527    1.6210    1.1670 H   0  0  0  0  0  0  0  0  0  0  0  0
  1  2  3  0  0  0  0
  2  3  1  0  0  0  0
  3  9  2  0  0  0  0
  3  4  1  0  0  0  0
  4  5  2  0  0  0  0
  4 18  1  0  0  0  0
  5  6  1  0  0  0  0
  5 19  1  0  0  0  0
  6  7  1  0  0  0  0
  6  8  2  0  0  0  0
  7 20  1  0  0  0  0
  7 21  1  0  0  0  0
  8  9  1  0  0  0  0
  8 22  1  0  0  0  0
  9 10  1  0  0  0  0
 10 11  1  0  0  0  0
 11 16  1  0  0  0  0
 11 12  2  0  0  0  0
 12 13  1  0  0  0  0
 12 23  1  0  0  0  0
 13 14  1  0  0  0  0
 14 15  1  0  0  0  0
 14 24  1  0  0  0  0
 14 25  1  0  0  0  0
 15 16  2  0  0  0  0
 15 26  1  0  0  0  0
 16 17  1  0  0  0  0
M  CHG  1  17  -1
M  END
$$$$
