
 OpenBabel03202621322D

 22 22  0  0  1  0  0  0  0  0999 V2000
    3.6883   -2.3929   -0.0486 O   0  0  0  0  0  0  0  0  0  0  0  0
    3.6442   -1.2013    0.2104 C   0  0  0  0  0  0  0  0  0  0  0  0
    2.5191   -0.4196    0.1923 N   0  0  0  0  0  0  0  0  0  0  0  0
    1.2115   -0.8604   -0.3177 C   0  0  2  0  0  0  0  0  0  0  0  0
    0.8303   -2.2865    0.0643 C   0  0  0  0  0  0  0  0  0  0  0  0
   -0.9328   -2.3517   -0.1082 S   0  0  0  0  0  0  0  0  0  0  0  0
   -1.2397   -2.7471   -1.4689 O   0  0  0  0  0  0  0  0  0  0  0  0
   -1.4885   -3.0367    1.0371 O   0  0  0  0  0  0  0  0  0  0  0  0
   -1.2457   -0.6166    0.0399 C   0  0  0  0  0  0  0  0  0  0  0  0
    0.0919    0.0754    0.2165 C   0  0  2  0  0  0  0  0  0  0  0  0
    0.2702    1.7047   -0.6269 S   0  0  0  0  0  0  0  0  0  0  0  0
   -1.2057    2.5411   -0.1909 C   0  0  0  0  0  0  0  0  0  0  0  0
   -2.2885    1.9796   -0.1154 O   0  0  0  0  0  0  0  0  0  0  0  0
    4.5363   -0.6281    0.5126 H   0  0  0  0  0  0  0  0  0  0  0  0
    2.6839    0.5816    0.2217 H   0  0  0  0  0  0  0  0  0  0  0  0
    1.2669   -0.8038   -1.4139 H   0  0  0  0  0  0  0  0  0  0  0  0
    1.2710   -3.0305   -0.6066 H   0  0  0  0  0  0  0  0  0  0  0  0
    1.0815   -2.5248    1.0991 H   0  0  0  0  0  0  0  0  0  0  0  0
   -1.8800   -0.4697    0.9231 H   0  0  0  0  0  0  0  0  0  0  0  0
   -1.7972   -0.3143   -0.8588 H   0  0  0  0  0  0  0  0  0  0  0  0
    0.2560    0.2567    1.2877 H   0  0  0  0  0  0  0  0  0  0  0  0
   -1.1010    3.6244   -0.0227 H   0  0  0  0  0  0  0  0  0  0  0  0
  1  2  2  0  0  0  0
  2  3  1  0  0  0  0
  2 14  1  0  0  0  0
  3 15  1  0  0  0  0
  4  3  1  0  0  0  0
  4  5  1  0  0  0  0
  4 10  1  0  0  0  0
  4 16  1  1  0  0  0
  5  6  1  0  0  0  0
  5 17  1  0  0  0  0
  5 18  1  0  0  0  0
  6  7  2  0  0  0  0
  6  8  2  0  0  0  0
  6  9  1  0  0  0  0
  9 10  1  0  0  0  0
  9 19  1  0  0  0  0
  9 20  1  0  0  0  0
 10 11  1  0  0  0  0
 10 21  1  1  0  0  0
 11 12  1  0  0  0  0
 12 13  2  0  0  0  0
 12 22  1  0  0  0  0
M  END
$$$$
