
 OpenBabel03202621282D

 14 15  0  0  1  0  0  0  0  0999 V2000
    1.1924   -1.3243    0.0000 C   0  0  0  0  0  0  0  0  0  0  0  0
    0.2588   -0.9659    0.0000 N   0  0  0  0  0  0  0  0  0  0  0  0
   -0.5799   -1.5106    0.0000 C   0  0  0  0  0  0  0  0  0  0  0  0
   -1.3570   -0.8812    0.0000 C   0  0  0  0  0  0  0  0  0  0  0  0
   -2.3229   -1.1401    0.0000 C   0  0  3  0  0  0  0  0  0  0  0  0
   -2.4534   -2.1315    0.0000 O   0  0  0  0  0  0  0  0  0  0  0  0
   -3.1889   -1.6401    0.0000 C   0  0  0  0  0  0  0  0  0  0  0  0
   -4.0550   -1.1401    0.0000 C   0  0  0  0  0  0  0  0  0  0  0  0
   -4.0550   -0.1401    0.0000 O   0  0  0  0  0  0  0  0  0  0  0  0
   -3.1889    0.3599    0.0000 C   0  0  0  0  0  0  0  0  0  0  0  0
   -2.3229   -0.1401    0.0000 C   0  0  0  0  0  0  0  0  0  0  0  0
   -1.4569    0.3599    0.0000 O   0  5  0  0  0  0  0  0  0  0  0  0
   -0.9986    0.0523    0.0000 C   0  0  0  0  0  0  0  0  0  0  0  0
   -0.0000   -0.0000    0.0000 N   0  0  0  0  0  0  0  0  0  0  0  0
  1  2  1  0  0  0  0
  2 14  1  0  0  0  0
  2  3  1  0  0  0  0
  3  4  2  0  0  0  0
  4  5  1  0  0  0  0
  4 13  1  0  0  0  0
  5 11  1  0  0  0  0
  5  6  1  0  0  0  0
  5  7  1  0  0  0  0
  7  8  1  0  0  0  0
  8  9  1  0  0  0  0
  9 10  1  0  0  0  0
 10 11  2  0  0  0  0
 11 12  1  0  0  0  0
 13 14  2  0  0  0  0
M  CHG  1  12  -1
M  END
$$$$
