
 OpenBabel03202621342D

 22 22  0  0  1  0  0  0  0  0999 V2000
    0.5000   -2.8660    0.0000 C   0  0  0  0  0  0  0  0  0  0  0  0
    1.3660   -2.3660    0.0000 C   0  0  0  0  0  0  0  0  0  0  0  0
    1.2049   -0.7925   -0.0850 C   0  0  0  0  0  0  0  0  0  0  0  0
    0.1871   -0.2698    0.8997 C   0  0  2  0  0  0  0  0  0  0  0  0
   -1.2517   -0.1865    0.4651 C   0  0  0  0  0  0  0  0  0  0  0  0
   -0.5088    1.0707    0.8309 C   0  0  2  0  0  0  0  0  0  0  0  0
   -0.2942    2.0704   -0.1537 N   0  0  0  0  0  0  0  0  0  0  0  0
   -1.2850    2.9346   -0.5460 C   0  0  0  0  0  0  0  0  0  0  0  0
   -1.0864    3.9192   -1.2423 O   0  0  0  0  0  0  0  0  0  0  0  0
    0.2039   -2.7309   -1.0702 H   0  0  0  0  0  0  0  0  0  0  0  0
    0.8939   -3.9070    0.1081 H   0  0  0  0  0  0  0  0  0  0  0  0
   -0.4266   -3.4010    0.0000 H   0  0  0  0  0  0  0  0  0  0  0  0
    1.9459   -2.4734    0.9348 H   0  0  0  0  0  0  0  0  0  0  0  0
    2.1322   -2.5890   -0.7675 H   0  0  0  0  0  0  0  0  0  0  0  0
    2.1761   -0.3310    0.1378 H   0  0  0  0  0  0  0  0  0  0  0  0
    0.9488   -0.4957   -1.1133 H   0  0  0  0  0  0  0  0  0  0  0  0
    0.3954   -0.6389    1.9009 H   0  0  0  0  0  0  0  0  0  0  0  0
   -2.0144   -0.5465    1.1456 H   0  0  0  0  0  0  0  0  0  0  0  0
   -1.4895   -0.3482   -0.5818 H   0  0  0  0  0  0  0  0  0  0  0  0
   -0.7487    1.5079    1.8007 H   0  0  0  0  0  0  0  0  0  0  0  0
    0.6473    2.3339   -0.4228 H   0  0  0  0  0  0  0  0  0  0  0  0
   -2.2791    2.6641   -0.1538 H   0  0  0  0  0  0  0  0  0  0  0  0
  1  2  1  0  0  0  0
  1 10  1  0  0  0  0
  1 11  1  0  0  0  0
  1 12  1  0  0  0  0
  2  3  1  0  0  0  0
  2 13  1  0  0  0  0
  2 14  1  0  0  0  0
  3 15  1  0  0  0  0
  3 16  1  0  0  0  0
  4  3  1  0  0  0  0
  4  5  1  0  0  0  0
  4  6  1  0  0  0  0
  4 17  1  1  0  0  0
  5  6  1  0  0  0  0
  5 18  1  0  0  0  0
  5 19  1  0  0  0  0
  6  7  1  0  0  0  0
  6 20  1  1  0  0  0
  7  8  1  0  0  0  0
  7 21  1  0  0  0  0
  8  9  2  0  0  0  0
  8 22  1  0  0  0  0
M  END
$$$$
