
 OpenBabel03202621332D

 29 31  0  0  0  0  0  0  0  0999 V2000
   -0.0933   -1.7796    0.0000 C   0  0  0  0  0  0  0  0  0  0  0  0
   -0.5000   -0.8660    0.0000 C   0  0  0  0  0  0  0  0  0  0  0  0
   -1.5353   -0.3101   -0.7363 C   0  0  0  0  0  0  0  0  0  0  0  0
   -1.9271    0.7949   -0.0244 N   0  0  0  0  0  0  0  0  0  0  0  0
   -3.1755    1.5408   -0.0855 C   0  0  0  0  0  0  0  0  0  0  0  0
   -4.4415    0.7195    0.1067 C   0  0  0  0  0  0  0  0  0  0  0  0
   -4.4490   -0.6541    0.4179 C   0  0  0  0  0  0  0  0  0  0  0  0
   -5.6408   -1.3690    0.4873 C   0  0  0  0  0  0  0  0  0  0  0  0
   -6.8467   -0.7113    0.2925 C   0  0  0  0  0  0  0  0  0  0  0  0
   -6.8629    0.6717    0.0639 C   0  0  0  0  0  0  0  0  0  0  0  0
   -8.0735    1.3624   -0.0640 C   0  0  0  0  0  0  0  0  0  0  0  0
   -8.0683    2.7380   -0.2468 C   0  0  0  0  0  0  0  0  0  0  0  0
   -6.8464    3.3745   -0.3172 C   0  0  0  0  0  0  0  0  0  0  0  0
   -5.6591    2.7354   -0.2316 N   0  0  0  0  0  0  0  0  0  0  0  0
   -5.6562    1.4029   -0.0292 C   0  0  0  0  0  0  0  0  0  0  0  0
   -1.0173    1.1060    0.9036 N   0  0  0  0  0  0  0  0  0  0  0  0
   -0.1522    0.1084    0.9419 N   0  0  0  0  0  0  0  0  0  0  0  0
   -0.3896   -2.1229    1.0200 H   0  0  0  0  0  0  0  0  0  0  0  0
    0.9891   -1.5119   -0.0413 H   0  0  0  0  0  0  0  0  0  0  0  0
    0.3419   -2.7571    0.0000 H   0  0  0  0  0  0  0  0  0  0  0  0
   -2.1278   -0.6913   -1.5561 H   0  0  0  0  0  0  0  0  0  0  0  0
   -3.1254    2.3118    0.6952 H   0  0  0  0  0  0  0  0  0  0  0  0
   -3.1772    2.0273   -1.0670 H   0  0  0  0  0  0  0  0  0  0  0  0
   -3.5334   -1.2038    0.6136 H   0  0  0  0  0  0  0  0  0  0  0  0
   -5.6255   -2.4366    0.6933 H   0  0  0  0  0  0  0  0  0  0  0  0
   -7.7729   -1.2785    0.3451 H   0  0  0  0  0  0  0  0  0  0  0  0
   -9.0225    0.8359   -0.0043 H   0  0  0  0  0  0  0  0  0  0  0  0
   -8.9930    3.2977   -0.3248 H   0  0  0  0  0  0  0  0  0  0  0  0
   -6.7823    4.4518   -0.4431 H   0  0  0  0  0  0  0  0  0  0  0  0
  1  2  1  0  0  0  0
  1 18  1  0  0  0  0
  1 19  1  0  0  0  0
  1 20  1  0  0  0  0
  2 17  1  0  0  0  0
  2  3  2  0  0  0  0
  3  4  1  0  0  0  0
  3 21  1  0  0  0  0
  4  5  1  0  0  0  0
  4 16  1  0  0  0  0
  5  6  1  0  0  0  0
  5 22  1  0  0  0  0
  5 23  1  0  0  0  0
  6 15  2  0  0  0  0
  6  7  1  0  0  0  0
  7  8  2  0  0  0  0
  7 24  1  0  0  0  0
  8  9  1  0  0  0  0
  8 25  1  0  0  0  0
  9 10  2  0  0  0  0
  9 26  1  0  0  0  0
 10 15  1  0  0  0  0
 10 11  1  0  0  0  0
 11 12  2  0  0  0  0
 11 27  1  0  0  0  0
 12 13  1  0  0  0  0
 12 28  1  0  0  0  0
 13 14  2  0  0  0  0
 13 29  1  0  0  0  0
 14 15  1  0  0  0  0
 16 17  2  0  0  0  0
M  END
$$$$
