
 OpenBabel03202621282D

 14 14  0  0  1  0  0  0  0  0999 V2000
   -2.2528    2.5289    0.0000 C   0  0  0  0  0  0  0  0  0  0  0  0
   -1.4438    1.9411    0.0000 O   0  0  0  0  0  0  0  0  0  0  0  0
   -0.5302    2.3479    0.0000 C   0  0  0  0  0  0  0  0  0  0  0  0
   -0.4257    3.3424    0.0000 O   0  0  0  0  0  0  0  0  0  0  0  0
    0.2788    1.7601    0.0000 C   0  0  1  0  0  0  0  0  0  0  0  0
    0.8666    2.5691    0.0000 C   0  0  0  0  0  0  0  0  0  0  0  0
    1.0878    1.1723    0.0000 C   0  0  0  0  0  0  0  0  0  0  0  0
    2.0013    1.5790    0.0000 O   0  0  0  0  0  0  0  0  0  0  0  0
   -0.3090    0.9511    0.0000 N   0  0  0  0  0  0  0  0  0  0  0  0
   -1.3090    0.9511    0.0000 C   0  0  0  0  0  0  0  0  0  0  0  0
   -1.6180    0.0000    0.0000 C   0  0  0  0  0  0  0  0  0  0  0  0
   -2.5691   -0.3090    0.0000 C   0  0  0  0  0  0  0  0  0  0  0  0
   -0.8090   -0.5878    0.0000 N   0  0  0  0  0  0  0  0  0  0  0  0
    0.0000   -0.0000    0.0000 N   0  0  0  0  0  0  0  0  0  0  0  0
  1  2  1  0  0  0  0
  2  3  1  0  0  0  0
  3  4  2  0  0  0  0
  3  5  1  0  0  0  0
  5  6  1  6  0  0  0
  5  7  1  0  0  0  0
  5  9  1  0  0  0  0
  7  8  1  0  0  0  0
  9 14  1  0  0  0  0
  9 10  1  0  0  0  0
 10 11  2  0  0  0  0
 11 12  1  0  0  0  0
 11 13  1  0  0  0  0
 13 14  2  0  0  0  0
M  END
$$$$
