
 OpenBabel03202621362D

 16 16  0  0  0  0  0  0  0  0999 V2000
    0.4476    4.3412    0.6335 O   0  0  0  0  0  0  0  0  0  0  0  0
   -0.2957    3.6663   -0.0602 C   0  0  0  0  0  0  0  0  0  0  0  0
   -0.0412    2.4379   -0.5620 O   0  0  0  0  0  0  0  0  0  0  0  0
    1.2152    1.8728   -0.1782 C   0  0  0  0  0  0  0  0  0  0  0  0
    1.0647    0.3799   -0.0926 C   0  0  0  0  0  0  0  0  0  0  0  0
    1.9441   -0.4837   -0.4982 N   0  0  0  0  0  0  0  0  0  0  0  0
    1.3497   -1.7680   -0.1033 C   0  0  0  0  0  0  0  0  0  0  0  0
   -0.0964   -1.4479    0.1936 C   0  0  0  0  0  0  0  0  0  0  0  0
   -0.0828   -0.0599    0.4809 O   0  0  0  0  0  0  0  0  0  0  0  0
   -1.3001    3.9840   -0.3802 H   0  0  0  0  0  0  0  0  0  0  0  0
    1.5598    2.2272    0.8008 H   0  0  0  0  0  0  0  0  0  0  0  0
    1.9567    2.1167   -0.9438 H   0  0  0  0  0  0  0  0  0  0  0  0
    1.8633   -2.1417    0.7896 H   0  0  0  0  0  0  0  0  0  0  0  0
    1.4432   -2.5184   -0.8940 H   0  0  0  0  0  0  0  0  0  0  0  0
   -0.4836   -2.0144    1.0448 H   0  0  0  0  0  0  0  0  0  0  0  0
   -0.7431   -1.6185   -0.6740 H   0  0  0  0  0  0  0  0  0  0  0  0
  1  2  2  0  0  0  0
  2  3  1  0  0  0  0
  2 10  1  0  0  0  0
  3  4  1  0  0  0  0
  4  5  1  0  0  0  0
  4 11  1  0  0  0  0
  4 12  1  0  0  0  0
  5  9  1  0  0  0  0
  5  6  2  0  0  0  0
  6  7  1  0  0  0  0
  7  8  1  0  0  0  0
  7 13  1  0  0  0  0
  7 14  1  0  0  0  0
  8  9  1  0  0  0  0
  8 15  1  0  0  0  0
  8 16  1  0  0  0  0
M  END
$$$$
