
 OpenBabel03202621372D

 28 29  0  0  0  0  0  0  0  0999 V2000
    1.4945   -0.9706    0.0000 C   0  0  0  0  0  0  0  0  0  0  0  0
    0.5000   -0.8660    0.0000 C   0  0  0  0  0  0  0  0  0  0  0  0
   -0.4293   -1.8500   -0.2888 C   0  0  0  0  0  0  0  0  0  0  0  0
   -1.6723   -1.3132   -0.0966 N   0  0  0  0  0  0  0  0  0  0  0  0
   -2.8985   -2.0115   -0.0845 C   0  0  0  0  0  0  0  0  0  0  0  0
   -2.8783   -3.4097   -0.0985 C   0  0  0  0  0  0  0  0  0  0  0  0
   -4.0626   -4.1395   -0.0932 C   0  0  0  0  0  0  0  0  0  0  0  0
   -5.2908   -3.5011   -0.0585 C   0  0  0  0  0  0  0  0  0  0  0  0
   -6.5284   -4.1632   -0.0610 N   0  0  0  0  0  0  0  0  0  0  0  0
   -6.8966   -5.4820    0.0602 C   0  0  0  0  0  0  0  0  0  0  0  0
   -8.1110   -5.7089   -0.0859 O   0  0  0  0  0  0  0  0  0  0  0  0
   -5.9070   -6.6188    0.3700 C   0  0  0  0  0  0  0  0  0  0  0  0
   -5.0989   -6.9128   -0.6903 F   0  0  0  0  0  0  0  0  0  0  0  0
   -5.0853   -6.3387    1.4230 F   0  0  0  0  0  0  0  0  0  0  0  0
   -6.5249   -7.7897    0.6931 F   0  0  0  0  0  0  0  0  0  0  0  0
   -5.3119   -2.0950   -0.0489 C   0  0  0  0  0  0  0  0  0  0  0  0
   -4.1225   -1.3466   -0.0442 C   0  0  0  0  0  0  0  0  0  0  0  0
   -1.5494    0.0076    0.1181 N   0  0  0  0  0  0  0  0  0  0  0  0
   -0.2519    0.2859    0.2006 N   0  0  0  0  0  0  0  0  0  0  0  0
    1.6069   -1.7224    0.8222 H   0  0  0  0  0  0  0  0  0  0  0  0
    1.8159    0.0045    0.4424 H   0  0  0  0  0  0  0  0  0  0  0  0
    2.5586   -1.0825    0.0000 H   0  0  0  0  0  0  0  0  0  0  0  0
   -0.2731   -2.8821   -0.5618 H   0  0  0  0  0  0  0  0  0  0  0  0
   -1.9548   -3.9808   -0.0905 H   0  0  0  0  0  0  0  0  0  0  0  0
   -3.9337   -5.2097   -0.1375 H   0  0  0  0  0  0  0  0  0  0  0  0
   -7.3491   -3.5745   -0.1777 H   0  0  0  0  0  0  0  0  0  0  0  0
   -6.2563   -1.5533   -0.0244 H   0  0  0  0  0  0  0  0  0  0  0  0
   -4.1741   -0.2577   -0.0273 H   0  0  0  0  0  0  0  0  0  0  0  0
  1  2  1  0  0  0  0
  1 20  1  0  0  0  0
  1 21  1  0  0  0  0
  1 22  1  0  0  0  0
  2 19  1  0  0  0  0
  2  3  2  0  0  0  0
  3  4  1  0  0  0  0
  3 23  1  0  0  0  0
  4  5  1  0  0  0  0
  4 18  1  0  0  0  0
  5 17  2  0  0  0  0
  5  6  1  0  0  0  0
  6  7  2  0  0  0  0
  6 24  1  0  0  0  0
  7  8  1  0  0  0  0
  7 25  1  0  0  0  0
  8  9  1  0  0  0  0
  8 16  2  0  0  0  0
  9 10  1  0  0  0  0
  9 26  1  0  0  0  0
 10 11  2  0  0  0  0
 10 12  1  0  0  0  0
 12 13  1  0  0  0  0
 12 14  1  0  0  0  0
 12 15  1  0  0  0  0
 16 17  1  0  0  0  0
 16 27  1  0  0  0  0
 17 28  1  0  0  0  0
 18 19  2  0  0  0  0
M  END
$$$$
