
 OpenBabel03202621322D

 19 19  0  0  0  0  0  0  0  0999 V2000
   -2.3793   -2.9917   -0.0000 C   0  0  0  0  0  0  0  0  0  0  0  0
   -0.7066   -2.4055   -0.0000 S   0  0  0  0  0  0  0  0  0  0  0  0
   -0.7799   -0.5995   -0.0000 C   0  0  0  0  0  0  0  0  0  0  0  0
   -1.9638    0.1470   -0.0000 C   0  0  0  0  0  0  0  0  0  0  0  0
   -1.9283    1.5385   -0.0000 C   0  0  0  0  0  0  0  0  0  0  0  0
   -3.1252    2.1959   -0.0000 O   0  0  0  0  0  0  0  0  0  0  0  0
   -0.7246    2.2262   -0.0000 C   0  0  0  0  0  0  0  0  0  0  0  0
    0.4657    1.5018    0.0000 C   0  0  0  0  0  0  0  0  0  0  0  0
    0.4573    0.0999   -0.0000 C   0  0  0  0  0  0  0  0  0  0  0  0
    1.6749   -0.5744    0.0000 N   0  0  0  0  0  0  0  0  0  0  0  0
   -3.1236   -2.2171    0.0000 H   0  0  0  0  0  0  0  0  0  0  0  0
   -1.9942   -4.0112    0.0000 H   0  0  0  0  0  0  0  0  0  0  0  0
   -3.2347   -3.7090   -0.0000 H   0  0  0  0  0  0  0  0  0  0  0  0
   -2.9445   -0.3059   -0.0000 H   0  0  0  0  0  0  0  0  0  0  0  0
   -2.9550    3.1520    0.0000 H   0  0  0  0  0  0  0  0  0  0  0  0
   -0.6908    3.3101    0.0000 H   0  0  0  0  0  0  0  0  0  0  0  0
    1.4097    2.0402    0.0000 H   0  0  0  0  0  0  0  0  0  0  0  0
    1.6477   -1.5889   -0.0000 H   0  0  0  0  0  0  0  0  0  0  0  0
    2.5611   -0.0945   -0.0000 H   0  0  0  0  0  0  0  0  0  0  0  0
  1  2  1  0  0  0  0
  1 11  1  0  0  0  0
  1 12  1  0  0  0  0
  1 13  1  0  0  0  0
  2  3  1  0  0  0  0
  3  9  2  0  0  0  0
  3  4  1  0  0  0  0
  4  5  2  0  0  0  0
  4 14  1  0  0  0  0
  5  6  1  0  0  0  0
  5  7  1  0  0  0  0
  6 15  1  0  0  0  0
  7  8  2  0  0  0  0
  7 16  1  0  0  0  0
  8  9  1  0  0  0  0
  8 17  1  0  0  0  0
  9 10  1  0  0  0  0
 10 18  1  0  0  0  0
 10 19  1  0  0  0  0
M  END
$$$$
