
 OpenBabel03202621392D

 37 37  0  0  1  0  0  0  0  0999 V2000
    3.4641    1.0000    0.0000 C   0  0  0  0  0  0  0  0  0  0  0  0
    2.5981    1.5000    0.0000 C   0  0  0  0  0  0  0  0  0  0  0  0
    2.3094    1.8601   -1.5044 C   0  0  0  0  0  0  0  0  0  0  0  0
    2.4755    0.7306   -2.4432 O   0  0  0  0  0  0  0  0  0  0  0  0
    1.4267   -0.1542   -2.3515 C   0  0  0  0  0  0  0  0  0  0  0  0
    1.6109   -1.5311   -2.1255 C   0  0  0  0  0  0  0  0  0  0  0  0
    0.5610   -2.2714   -1.5172 C   0  0  0  0  0  0  0  0  0  0  0  0
   -0.4771   -1.5490   -0.9407 C   0  0  0  0  0  0  0  0  0  0  0  0
   -1.7321   -2.0000    0.0000 C   0  0  2  0  0  0  0  0  0  0  0  0
   -2.2321   -2.8660    0.0000 C   0  0  0  0  0  0  0  0  0  0  0  0
   -0.8828   -1.8893    1.3241 O   0  0  0  0  0  0  0  0  0  0  0  0
   -2.5981   -1.5000    0.0000 C   0  0  2  0  0  0  0  0  0  0  0  0
   -2.5981   -0.5000    0.0000 C   0  0  0  0  0  0  0  0  0  0  0  0
   -2.5981    0.5000    0.0000 N   0  0  0  0  0  0  0  0  0  0  0  0
   -3.4641   -2.0000    0.0000 S   0  0  0  0  0  0  0  0  0  0  0  0
   -3.4641   -3.0000    0.0000 C   0  0  0  0  0  0  0  0  0  0  0  0
   -0.2895   -0.1682   -1.0370 C   0  0  0  0  0  0  0  0  0  0  0  0
    0.1995    0.3630   -2.1527 C   0  0  0  0  0  0  0  0  0  0  0  0
    3.0948   -0.0372    0.1981 H   0  0  0  0  0  0  0  0  0  0  0  0
    3.8971    1.3633    0.9652 H   0  0  0  0  0  0  0  0  0  0  0  0
    4.3907    0.4650    0.0000 H   0  0  0  0  0  0  0  0  0  0  0  0
    1.6834    1.0800    0.4511 H   0  0  0  0  0  0  0  0  0  0  0  0
    2.5703    2.5036    0.4693 H   0  0  0  0  0  0  0  0  0  0  0  0
    1.3394    2.3728   -1.5646 H   0  0  0  0  0  0  0  0  0  0  0  0
    3.0103    2.6303   -1.8510 H   0  0  0  0  0  0  0  0  0  0  0  0
    2.5702   -1.9946   -2.3333 H   0  0  0  0  0  0  0  0  0  0  0  0
    0.6627   -3.3468   -1.3804 H   0  0  0  0  0  0  0  0  0  0  0  0
   -1.7560   -3.3583   -1.0230 H   0  0  0  0  0  0  0  0  0  0  0  0
   -1.5291   -3.5697    0.6692 H   0  0  0  0  0  0  0  0  0  0  0  0
   -2.7671   -3.7926    0.0000 H   0  0  0  0  0  0  0  0  0  0  0  0
   -0.0176   -2.3105    1.1701 H   0  0  0  0  0  0  0  0  0  0  0  0
   -2.7388   -1.3261    1.1634 H   0  0  0  0  0  0  0  0  0  0  0  0
   -4.2211   -3.1615    0.8714 H   0  0  0  0  0  0  0  0  0  0  0  0
   -4.2167   -3.1573   -0.8758 H   0  0  0  0  0  0  0  0  0  0  0  0
   -3.4641   -4.0700    0.0000 H   0  0  0  0  0  0  0  0  0  0  0  0
   -0.5221    0.5159   -0.2273 H   0  0  0  0  0  0  0  0  0  0  0  0
   -0.0608    1.3943   -2.3818 H   0  0  0  0  0  0  0  0  0  0  0  0
  1  2  1  0  0  0  0
  1 19  1  0  0  0  0
  1 20  1  0  0  0  0
  1 21  1  0  0  0  0
  2  3  1  0  0  0  0
  2 22  1  0  0  0  0
  2 23  1  0  0  0  0
  3  4  1  0  0  0  0
  3 24  1  0  0  0  0
  3 25  1  0  0  0  0
  4  5  1  0  0  0  0
  5 18  2  0  0  0  0
  5  6  1  0  0  0  0
  6  7  2  0  0  0  0
  6 26  1  0  0  0  0
  7  8  1  0  0  0  0
  7 27  1  0  0  0  0
  8  9  1  0  0  0  0
  8 17  2  0  0  0  0
  9 10  1  0  0  0  0
  9 11  1  6  0  0  0
  9 12  1  0  0  0  0
 10 28  1  0  0  0  0
 10 29  1  0  0  0  0
 10 30  1  0  0  0  0
 11 31  1  0  0  0  0
 12 13  1  0  0  0  0
 12 15  1  0  0  0  0
 12 32  1  6  0  0  0
 13 14  3  0  0  0  0
 15 16  1  0  0  0  0
 16 33  1  0  0  0  0
 16 34  1  0  0  0  0
 16 35  1  0  0  0  0
 17 18  1  0  0  0  0
 17 36  1  0  0  0  0
 18 37  1  0  0  0  0
M  END
$$$$
