
 OpenBabel03202621282D

 17 18  0  0  0  0  0  0  0  0999 V2000
   -0.1280   -2.6736    0.0000 C   0  0  0  0  0  0  0  0  0  0  0  0
    0.2788   -1.7601    0.0000 C   0  0  0  0  0  0  0  0  0  0  0  0
   -0.3090   -0.9511    0.0000 C   0  0  0  0  0  0  0  0  0  0  0  0
   -1.3090   -0.9511    0.0000 C   0  0  0  0  0  0  0  0  0  0  0  0
   -1.6180   -0.0000    0.0000 N   0  0  0  0  0  0  0  0  0  0  0  0
   -0.8090    0.5878    0.0000 C   0  0  0  0  0  0  0  0  0  0  0  0
   -0.8090    1.5878    0.0000 C   0  0  0  0  0  0  0  0  0  0  0  0
    0.0570    2.0878    0.0000 O   0  0  0  0  0  0  0  0  0  0  0  0
   -1.6750    2.0878    0.0000 O   0  0  0  0  0  0  0  0  0  0  0  0
   -2.5411    1.5878    0.0000 C   0  0  0  0  0  0  0  0  0  0  0  0
   -2.5411    0.5878    0.0000 C   0  0  0  0  0  0  0  0  0  0  0  0
   -3.4071    0.0878    0.0000 O   0  0  0  0  0  0  0  0  0  0  0  0
   -4.2731    0.5878    0.0000 C   0  0  0  0  0  0  0  0  0  0  0  0
   -4.2731    1.5878    0.0000 C   0  0  0  0  0  0  0  0  0  0  0  0
   -3.4071    2.0878    0.0000 C   0  0  0  0  0  0  0  0  0  0  0  0
   -3.4071    3.0878    0.0000 O   0  0  0  0  0  0  0  0  0  0  0  0
    0.0000    0.0000    0.0000 C   0  0  0  0  0  0  0  0  0  0  0  0
  1  2  1  0  0  0  0
  2  3  1  0  0  0  0
  3 17  1  0  0  0  0
  3  4  2  0  0  0  0
  4  5  1  0  0  0  0
  5  6  1  0  0  0  0
  6  7  1  0  0  0  0
  6 17  2  0  0  0  0
  7  8  2  0  0  0  0
  7  9  1  0  0  0  0
  9 10  1  0  0  0  0
 10 15  1  0  0  0  0
 10 11  2  0  0  0  0
 11 12  1  0  0  0  0
 12 13  1  0  0  0  0
 13 14  1  0  0  0  0
 14 15  2  0  0  0  0
 15 16  1  0  0  0  0
M  END
$$$$
