
 OpenBabel03202621282D

 17 19  0  0  0  0  0  0  0  0999 V2000
   -0.9706   -1.4945    0.0000 C   0  0  0  0  0  0  0  0  0  0  0  0
   -0.8660   -0.5000    0.0000 C   0  0  0  0  0  0  0  0  0  0  0  0
   -1.6092    0.1691    0.0000 C   0  0  0  0  0  0  0  0  0  0  0  0
   -1.2024    1.0827    0.0000 N   0  0  0  0  0  0  0  0  0  0  0  0
   -1.7024    1.9487    0.0000 C   0  0  0  0  0  0  0  0  0  0  0  0
   -2.7024    1.9487    0.0000 C   0  0  0  0  0  0  0  0  0  0  0  0
   -3.2902    1.1397    0.0000 N   0  0  0  0  0  0  0  0  0  0  0  0
   -4.2413    1.4487    0.0000 C   0  0  0  0  0  0  0  0  0  0  0  0
   -5.1073    0.9487    0.0000 C   0  0  0  0  0  0  0  0  0  0  0  0
   -5.9733    1.4487    0.0000 C   0  0  0  0  0  0  0  0  0  0  0  0
   -6.8394    0.9487    0.0000 Cl  0  0  0  0  0  0  0  0  0  0  0  0
   -5.9733    2.4487    0.0000 C   0  0  0  0  0  0  0  0  0  0  0  0
   -5.1073    2.9487    0.0000 C   0  0  0  0  0  0  0  0  0  0  0  0
   -4.2413    2.4487    0.0000 C   0  0  0  0  0  0  0  0  0  0  0  0
   -3.2902    2.7577    0.0000 O   0  0  0  0  0  0  0  0  0  0  0  0
   -0.2079    0.9781    0.0000 N   0  0  0  0  0  0  0  0  0  0  0  0
    0.0000    0.0000    0.0000 N   0  0  0  0  0  0  0  0  0  0  0  0
  1  2  1  0  0  0  0
  2 17  1  0  0  0  0
  2  3  2  0  0  0  0
  3  4  1  0  0  0  0
  4  5  1  0  0  0  0
  4 16  1  0  0  0  0
  5  6  1  0  0  0  0
  6 15  1  0  0  0  0
  6  7  2  0  0  0  0
  7  8  1  0  0  0  0
  8 14  2  0  0  0  0
  8  9  1  0  0  0  0
  9 10  2  0  0  0  0
 10 11  1  0  0  0  0
 10 12  1  0  0  0  0
 12 13  2  0  0  0  0
 13 14  1  0  0  0  0
 14 15  1  0  0  0  0
 16 17  2  0  0  0  0
M  END
$$$$
