
 OpenBabel03202621312D

 27 27  0  0  0  0  0  0  0  0999 V2000
   -0.8660   -1.5000    0.0000 C   0  0  0  0  0  0  0  0  0  0  0  0
   -0.8660   -0.5000    0.0000 C   0  0  0  0  0  0  0  0  0  0  0  0
   -2.0514    0.2285    0.2017 C   0  0  0  0  0  0  0  0  0  0  0  0
   -2.2216    1.5829    0.2060 N   0  0  0  0  0  0  0  0  0  0  0  0
   -1.1523    2.3765    0.0422 N   0  0  0  0  0  0  0  0  0  0  0  0
    0.0471    1.8039   -0.1059 C   0  0  0  0  0  0  0  0  0  0  0  0
    1.2516    2.5194   -0.0985 N   0  0  0  0  0  0  0  0  0  0  0  0
    1.1989    3.9751   -0.0813 C   0  0  0  0  0  0  0  0  0  0  0  0
    2.6396    4.5473   -0.0768 C   0  0  0  0  0  0  0  0  0  0  0  0
    3.7138    3.4658    0.0447 C   0  0  0  0  0  0  0  0  0  0  0  0
    5.4185    4.0567    0.0712 S   0  0  0  0  0  0  0  0  0  0  0  0
    6.1718    2.4666    0.1938 C   0  0  0  0  0  0  0  0  0  0  0  0
    7.3874    2.3331    0.2692 O   0  0  0  0  0  0  0  0  0  0  0  0
    0.1867    0.4095   -0.1548 C   0  0  0  0  0  0  0  0  0  0  0  0
   -1.3490   -1.6811   -0.9939 H   0  0  0  0  0  0  0  0  0  0  0  0
    0.2140   -1.7541   -0.1262 H   0  0  0  0  0  0  0  0  0  0  0  0
   -0.8660   -2.5700    0.0000 H   0  0  0  0  0  0  0  0  0  0  0  0
   -2.9974   -0.2952    0.3608 H   0  0  0  0  0  0  0  0  0  0  0  0
    1.7198    2.1697    0.7347 H   0  0  0  0  0  0  0  0  0  0  0  0
    0.6635    4.3544   -0.9606 H   0  0  0  0  0  0  0  0  0  0  0  0
    0.6673    4.3263    0.8112 H   0  0  0  0  0  0  0  0  0  0  0  0
    2.7266    5.2632    0.7501 H   0  0  0  0  0  0  0  0  0  0  0  0
    2.7933    5.1210   -0.9992 H   0  0  0  0  0  0  0  0  0  0  0  0
    3.5725    2.9103    0.9786 H   0  0  0  0  0  0  0  0  0  0  0  0
    3.6314    2.7682   -0.7969 H   0  0  0  0  0  0  0  0  0  0  0  0
    5.5051    1.5870    0.2067 H   0  0  0  0  0  0  0  0  0  0  0  0
    1.2013    0.0336   -0.3072 H   0  0  0  0  0  0  0  0  0  0  0  0
  1  2  1  0  0  0  0
  1 15  1  0  0  0  0
  1 16  1  0  0  0  0
  1 17  1  0  0  0  0
  2 14  2  0  0  0  0
  2  3  1  0  0  0  0
  3  4  2  0  0  0  0
  3 18  1  0  0  0  0
  4  5  1  0  0  0  0
  5  6  2  0  0  0  0
  6  7  1  0  0  0  0
  6 14  1  0  0  0  0
  7  8  1  0  0  0  0
  7 19  1  0  0  0  0
  8  9  1  0  0  0  0
  8 20  1  0  0  0  0
  8 21  1  0  0  0  0
  9 10  1  0  0  0  0
  9 22  1  0  0  0  0
  9 23  1  0  0  0  0
 10 11  1  0  0  0  0
 10 24  1  0  0  0  0
 10 25  1  0  0  0  0
 11 12  1  0  0  0  0
 12 13  2  0  0  0  0
 12 26  1  0  0  0  0
 14 27  1  0  0  0  0
M  END
$$$$
