
 OpenBabel03202621302D

 20 19  0  0  1  0  0  0  0  0999 V2000
    2.5981   -1.5000    0.0000 C   0  0  0  0  0  0  0  0  0  0  0  0
    2.5981   -0.5000    0.0000 C   0  0  2  0  0  0  0  0  0  0  0  0
    3.7299    0.3450    0.6641 C   0  0  0  0  0  0  0  0  0  0  0  0
    3.7199    1.8086    0.2484 C   0  0  0  0  0  0  0  0  0  0  0  0
    4.7551    2.4084   -0.0523 O   0  0  0  0  0  0  0  0  0  0  0  0
    2.4832    2.4390    0.3027 N   0  0  0  0  0  0  0  0  0  0  0  0
    2.3351    3.7477   -0.1895 N   0  0  0  0  0  0  0  0  0  0  0  0
    1.3602   -0.0116    0.6706 O   0  0  0  0  0  0  0  0  0  0  0  0
    0.1426   -0.2598    0.1196 C   0  0  0  0  0  0  0  0  0  0  0  0
   -0.8972    0.2074    0.5576 O   0  0  0  0  0  0  0  0  0  0  0  0
    2.7541   -1.7103    1.0873 H   0  0  0  0  0  0  0  0  0  0  0  0
    3.5456   -1.6928   -0.5580 H   0  0  0  0  0  0  0  0  0  0  0  0
    2.5981   -2.5700    0.0000 H   0  0  0  0  0  0  0  0  0  0  0  0
    2.4917   -0.0586   -1.0050 H   0  0  0  0  0  0  0  0  0  0  0  0
    3.6613    0.3216    1.7620 H   0  0  0  0  0  0  0  0  0  0  0  0
    4.7145   -0.0496    0.3747 H   0  0  0  0  0  0  0  0  0  0  0  0
    1.6480    1.8979    0.5373 H   0  0  0  0  0  0  0  0  0  0  0  0
    3.2827    4.1350   -0.3128 H   0  0  0  0  0  0  0  0  0  0  0  0
    1.9091    4.3227    0.5404 H   0  0  0  0  0  0  0  0  0  0  0  0
    0.2014   -0.9134   -0.7676 H   0  0  0  0  0  0  0  0  0  0  0  0
  1 11  1  0  0  0  0
  1 12  1  0  0  0  0
  1 13  1  0  0  0  0
  2  1  1  0  0  0  0
  2  3  1  0  0  0  0
  2  8  1  0  0  0  0
  2 14  1  6  0  0  0
  3  4  1  0  0  0  0
  3 15  1  0  0  0  0
  3 16  1  0  0  0  0
  4  5  2  0  0  0  0
  4  6  1  0  0  0  0
  6  7  1  0  0  0  0
  6 17  1  0  0  0  0
  7 18  1  0  0  0  0
  7 19  1  0  0  0  0
  8  9  1  0  0  0  0
  9 10  2  0  0  0  0
  9 20  1  0  0  0  0
M  END
$$$$
