
 OpenBabel03202621392D

 67 68  0  0  1  0  0  0  0  0999 V2000
    8.0222   -0.6807    0.0000 C   0  0  0  0  0  0  0  0  0  0  0  0
    7.7132    0.2703    0.0000 C   0  0  0  0  0  0  0  0  0  0  0  0
    7.3188    0.7011    1.4070 C   0  0  0  0  0  0  0  0  0  0  0  0
    6.3452    1.7832    1.2254 C   0  0  0  0  0  0  0  0  0  0  0  0
    6.4554    2.7901    1.9369 O   0  0  0  0  0  0  0  0  0  0  0  0
    5.4479    1.6372    0.0000 N   0  0  0  0  0  0  0  0  0  0  0  0
    5.1389    2.5882    0.0000 C   0  0  0  0  0  0  0  0  0  0  0  0
    4.7788    0.8940    0.0000 C   0  0  2  0  0  0  0  0  0  0  0  0
    3.8006    1.1020    0.0000 C   0  0  0  0  0  0  0  0  0  0  0  0
    4.9449   -0.5867    0.3997 C   0  0  0  0  0  0  0  0  0  0  0  0
    5.6942   -1.6714    0.8591 C   0  0  0  0  0  0  0  0  0  0  0  0
    5.3272   -2.7755    0.1328 N   0  0  0  0  0  0  0  0  0  0  0  0
    4.1920   -2.4432   -0.4538 N   0  0  0  0  0  0  0  0  0  0  0  0
    3.8183   -1.3344    0.2223 N   0  0  0  0  0  0  0  0  0  0  0  0
    2.7207   -1.2470    1.1967 C   0  0  0  0  0  0  0  0  0  0  0  0
    1.6109   -1.9753    0.6096 C   0  0  0  0  0  0  0  0  0  0  0  0
    0.1961   -1.5469    0.3937 C   0  0  2  0  0  0  0  0  0  0  0  0
   -0.0068   -0.5550   -0.7408 C   0  0  0  0  0  0  0  0  0  0  0  0
    0.8127   -0.3255   -1.5888 O   0  0  0  0  0  0  0  0  0  0  0  0
   -1.4317   -0.0760   -0.7740 C   0  0  0  0  0  0  0  0  0  0  0  0
   -2.3534   -1.0962   -1.1112 C   0  0  0  0  0  0  0  0  0  0  0  0
   -3.6383   -1.0413   -0.6239 C   0  0  0  0  0  0  0  0  0  0  0  0
   -4.0456    0.1030    0.0404 C   0  0  0  0  0  0  0  0  0  0  0  0
   -3.1482    1.1622    0.2397 C   0  0  0  0  0  0  0  0  0  0  0  0
   -1.7818    1.1009   -0.0912 C   0  0  0  0  0  0  0  0  0  0  0  0
   -0.9613    2.0085    0.2694 O   0  5  0  0  0  0  0  0  0  0  0  0
   -0.3486   -2.9316   -0.0177 C   0  0  0  0  0  0  0  0  0  0  0  0
   -1.2309   -3.4829    0.6382 O   0  0  0  0  0  0  0  0  0  0  0  0
    0.4316   -3.6639   -1.1739 C   0  0  1  0  0  0  0  0  0  0  0  0
    0.5060   -3.1927   -2.4846 O   0  0  0  0  0  0  0  0  0  0  0  0
    0.3648   -5.1390   -1.0241 C   0  0  0  0  0  0  0  0  0  0  0  0
   -0.5357   -5.8270   -1.5057 O   0  0  0  0  0  0  0  0  0  0  0  0
    1.4286   -5.7447   -0.1670 C   0  0  0  0  0  0  0  0  0  0  0  0
    3.0000   -5.1962    0.0000 C   0  0  0  0  0  0  0  0  0  0  0  0
    3.5000   -6.0622    0.0000 C   0  0  0  0  0  0  0  0  0  0  0  0
    3.1519   -4.2577    0.7734 O   0  0  0  0  0  0  0  0  0  0  0  0
    7.8860   -0.9529   -1.0791 H   0  0  0  0  0  0  0  0  0  0  0  0
    9.1244   -0.5505    0.1605 H   0  0  0  0  0  0  0  0  0  0  0  0
    8.3528   -1.6983    0.0000 H   0  0  0  0  0  0  0  0  0  0  0  0
    8.4715    1.0484   -0.2562 H   0  0  0  0  0  0  0  0  0  0  0  0
    7.0611    0.5710   -0.8254 H   0  0  0  0  0  0  0  0  0  0  0  0
    8.1966    1.0735    1.9516 H   0  0  0  0  0  0  0  0  0  0  0  0
    6.8571   -0.0012    2.1017 H   0  0  0  0  0  0  0  0  0  0  0  0
    6.1094    3.0964   -0.3187 H   0  0  0  0  0  0  0  0  0  0  0  0
    4.7134    2.7181   -1.0584 H   0  0  0  0  0  0  0  0  0  0  0  0
    4.8083    3.6058    0.0000 H   0  0  0  0  0  0  0  0  0  0  0  0
    5.0136    0.5406   -1.0488 H   0  0  0  0  0  0  0  0  0  0  0  0
    3.5368    1.5282    1.0115 H   0  0  0  0  0  0  0  0  0  0  0  0
    3.4335    1.2595   -1.0570 H   0  0  0  0  0  0  0  0  0  0  0  0
    2.7540    1.3245    0.0000 H   0  0  0  0  0  0  0  0  0  0  0  0
    6.5808   -1.7865    1.4549 H   0  0  0  0  0  0  0  0  0  0  0  0
    2.4630   -0.2198    1.4327 H   0  0  0  0  0  0  0  0  0  0  0  0
    3.1086   -1.7176    2.1159 H   0  0  0  0  0  0  0  0  0  0  0  0
    1.9473   -2.0952   -0.4059 H   0  0  0  0  0  0  0  0  0  0  0  0
    1.5642   -2.9030    1.1911 H   0  0  0  0  0  0  0  0  0  0  0  0
   -0.2464   -1.1975    1.3278 H   0  0  0  0  0  0  0  0  0  0  0  0
   -2.0247   -1.9929   -1.6353 H   0  0  0  0  0  0  0  0  0  0  0  0
   -4.2910   -1.9085   -0.7106 H   0  0  0  0  0  0  0  0  0  0  0  0
   -5.0580    0.1682    0.4348 H   0  0  0  0  0  0  0  0  0  0  0  0
   -3.5148    2.0516    0.7597 H   0  0  0  0  0  0  0  0  0  0  0  0
    1.4689   -3.6253   -0.8952 H   0  0  0  0  0  0  0  0  0  0  0  0
    1.4017   -2.8189   -2.5974 H   0  0  0  0  0  0  0  0  0  0  0  0
    1.4786   -6.7828   -0.5488 H   0  0  0  0  0  0  0  0  0  0  0  0
    1.0323   -5.8480    0.8542 H   0  0  0  0  0  0  0  0  0  0  0  0
    3.4753   -6.2055   -1.1120 H   0  0  0  0  0  0  0  0  0  0  0  0
    4.5306   -5.6451    0.1483 H   0  0  0  0  0  0  0  0  0  0  0  0
    4.0350   -6.9888    0.0000 H   0  0  0  0  0  0  0  0  0  0  0  0
  1  2  1  0  0  0  0
  1 37  1  0  0  0  0
  1 38  1  0  0  0  0
  1 39  1  0  0  0  0
  2  3  1  0  0  0  0
  2 40  1  0  0  0  0
  2 41  1  0  0  0  0
  3  4  1  0  0  0  0
  3 42  1  0  0  0  0
  3 43  1  0  0  0  0
  4  5  2  0  0  0  0
  4  6  1  0  0  0  0
  6  7  1  0  0  0  0
  6  8  1  0  0  0  0
  7 44  1  0  0  0  0
  7 45  1  0  0  0  0
  7 46  1  0  0  0  0
  8  9  1  0  0  0  0
  8 10  1  0  0  0  0
  8 47  1  6  0  0  0
  9 48  1  0  0  0  0
  9 49  1  0  0  0  0
  9 50  1  0  0  0  0
 10 14  1  0  0  0  0
 10 11  2  0  0  0  0
 11 12  1  0  0  0  0
 11 51  1  0  0  0  0
 12 13  2  0  0  0  0
 13 14  1  0  0  0  0
 14 15  1  0  0  0  0
 15 16  1  0  0  0  0
 15 52  1  0  0  0  0
 15 53  1  0  0  0  0
 16 54  1  0  0  0  0
 16 55  1  0  0  0  0
 17 16  1  0  0  0  0
 17 18  1  0  0  0  0
 17 27  1  0  0  0  0
 17 56  1  6  0  0  0
 18 19  2  0  0  0  0
 18 20  1  0  0  0  0
 20 25  2  0  0  0  0
 20 21  1  0  0  0  0
 21 22  2  0  0  0  0
 21 57  1  0  0  0  0
 22 23  1  0  0  0  0
 22 58  1  0  0  0  0
 23 24  2  0  0  0  0
 23 59  1  0  0  0  0
 24 25  1  0  0  0  0
 24 60  1  0  0  0  0
 25 26  1  0  0  0  0
 27 28  2  0  0  0  0
 27 29  1  0  0  0  0
 29 30  1  0  0  0  0
 29 31  1  0  0  0  0
 29 61  1  6  0  0  0
 30 62  1  0  0  0  0
 31 32  2  0  0  0  0
 31 33  1  0  0  0  0
 33 34  1  0  0  0  0
 33 63  1  0  0  0  0
 33 64  1  0  0  0  0
 34 35  1  0  0  0  0
 34 36  2  0  0  0  0
 35 65  1  0  0  0  0
 35 66  1  0  0  0  0
 35 67  1  0  0  0  0
M  CHG  1  26  -1
M  END
$$$$
