
 OpenBabel03202621302D

 13 13  0  0  0  0  0  0  0  0999 V2000
    3.3335   -2.0520   -0.0000 O   0  0  0  0  0  0  0  0  0  0  0  0
    3.2306   -0.8336   -0.0000 C   0  0  0  0  0  0  0  0  0  0  0  0
    2.0848   -0.0799   -0.0000 N   0  0  0  0  0  0  0  0  0  0  0  0
    0.8382   -0.6473   -0.0000 C   0  0  0  0  0  0  0  0  0  0  0  0
    0.3681   -1.9378   -0.0000 C   0  0  0  0  0  0  0  0  0  0  0  0
   -1.0141   -1.7704   -0.0000 C   0  0  0  0  0  0  0  0  0  0  0  0
   -1.9686   -2.7007   -0.0000 O   0  0  0  0  0  0  0  0  0  0  0  0
   -1.4113   -0.5034   -0.0000 N   0  0  0  0  0  0  0  0  0  0  0  0
   -0.2186    0.2205   -0.0000 O   0  0  0  0  0  0  0  0  0  0  0  0
    4.1245   -0.1873   -0.0000 H   0  0  0  0  0  0  0  0  0  0  0  0
    2.1363    0.9299   -0.0000 H   0  0  0  0  0  0  0  0  0  0  0  0
    0.9372   -2.8537   -0.0000 H   0  0  0  0  0  0  0  0  0  0  0  0
   -2.8139   -2.2193   -0.0000 H   0  0  0  0  0  0  0  0  0  0  0  0
  1  2  2  0  0  0  0
  2  3  1  0  0  0  0
  2 10  1  0  0  0  0
  3  4  1  0  0  0  0
  3 11  1  0  0  0  0
  4  9  1  0  0  0  0
  4  5  2  0  0  0  0
  5  6  1  0  0  0  0
  5 12  1  0  0  0  0
  6  7  1  0  0  0  0
  6  8  2  0  0  0  0
  7 13  1  0  0  0  0
  8  9  1  0  0  0  0
M  END
$$$$
