
 OpenBabel03202621382D

 18 17  0  0  0  0  0  0  0  0999 V2000
    4.3301   -1.5000    0.0000 C   0  0  0  0  0  0  0  0  0  0  0  0
    4.3301   -0.5000    0.0000 C   0  0  0  0  0  0  0  0  0  0  0  0
    4.0288    0.2195   -1.3219 C   0  0  0  0  0  0  0  0  0  0  0  0
    2.7845    0.1227   -1.8498 C   0  0  0  0  0  0  0  0  0  0  0  0
    1.8596    0.6995   -0.8249 C   0  0  0  0  0  0  0  0  0  0  0  0
    1.8304    1.8970   -0.5477 O   0  0  0  0  0  0  0  0  0  0  0  0
    0.8660   -0.5000    0.0000 S   0  0  0  0  0  0  0  0  0  0  0  0
    0.0000    0.0000    0.0000 C   0  0  0  0  0  0  0  0  0  0  0  0
    3.2517   -1.7111    0.1507 H   0  0  0  0  0  0  0  0  0  0  0  0
    4.8220   -1.6896    0.9892 H   0  0  0  0  0  0  0  0  0  0  0  0
    4.3301   -2.5700    0.0000 H   0  0  0  0  0  0  0  0  0  0  0  0
    5.3464   -0.0868    0.1742 H   0  0  0  0  0  0  0  0  0  0  0  0
    3.7914    0.0555    0.7927 H   0  0  0  0  0  0  0  0  0  0  0  0
    4.4167    1.2475   -1.2575 H   0  0  0  0  0  0  0  0  0  0  0  0
    2.4289   -0.8658   -2.1400 H   0  0  0  0  0  0  0  0  0  0  0  0
   -0.4115   -0.3438   -0.9729 H   0  0  0  0  0  0  0  0  0  0  0  0
   -0.5246   -0.5681    0.7922 H   0  0  0  0  0  0  0  0  0  0  0  0
   -0.9266    0.5350    0.0000 H   0  0  0  0  0  0  0  0  0  0  0  0
  1  2  1  0  0  0  0
  1  9  1  0  0  0  0
  1 10  1  0  0  0  0
  1 11  1  0  0  0  0
  2  3  1  0  0  0  0
  2 12  1  0  0  0  0
  2 13  1  0  0  0  0
  3  4  2  3  0  0  0
  3 14  1  0  0  0  0
  4  5  1  0  0  0  0
  4 15  1  0  0  0  0
  5  6  2  0  0  0  0
  5  7  1  0  0  0  0
  7  8  1  0  0  0  0
  8 16  1  0  0  0  0
  8 17  1  0  0  0  0
  8 18  1  0  0  0  0
M  END
$$$$
