
 OpenBabel03202621352D

 34 37  0  0  0  0  0  0  0  0999 V2000
   -2.6518    2.3699    0.0000 C   0  0  0  0  0  0  0  0  0  0  0  0
   -3.1369    1.5297    0.0000 C   0  0  0  0  0  0  0  0  0  0  0  0
   -3.2255    0.4329    0.8551 C   0  0  0  0  0  0  0  0  0  0  0  0
   -3.7524   -0.5927    0.0778 N   0  0  0  0  0  0  0  0  0  0  0  0
   -3.3644   -1.9397   -0.0587 C   0  0  0  0  0  0  0  0  0  0  0  0
   -4.2553   -2.7537   -0.3038 O   0  0  0  0  0  0  0  0  0  0  0  0
   -1.9443   -2.4303   -0.0105 C   0  0  0  0  0  0  0  0  0  0  0  0
   -1.7119   -3.8050    0.1204 C   0  0  0  0  0  0  0  0  0  0  0  0
   -0.4018   -4.3223    0.1277 C   0  0  0  0  0  0  0  0  0  0  0  0
    0.7204   -3.4889    0.0144 C   0  0  0  0  0  0  0  0  0  0  0  0
    0.5172   -2.1337   -0.1426 C   0  0  0  0  0  0  0  0  0  0  0  0
   -0.8118   -1.6308   -0.1891 C   0  0  0  0  0  0  0  0  0  0  0  0
   -0.7319   -0.1547   -0.4378 C   0  0  0  0  0  0  0  0  0  0  0  0
    0.7188    0.1594   -0.4606 C   0  0  0  0  0  0  0  0  0  0  0  0
    1.2536    1.4391   -0.4590 C   0  0  0  0  0  0  0  0  0  0  0  0
    2.6138    1.5505   -0.2407 C   0  0  0  0  0  0  0  0  0  0  0  0
    3.3868    0.3917   -0.0594 C   0  0  0  0  0  0  0  0  0  0  0  0
    2.8190   -0.9001   -0.0674 C   0  0  0  0  0  0  0  0  0  0  0  0
    1.4558   -1.0166   -0.2535 C   0  0  0  0  0  0  0  0  0  0  0  0
   -4.4789   -0.0312   -0.9065 N   0  0  0  0  0  0  0  0  0  0  0  0
   -4.0470    1.2131   -1.0276 N   0  0  0  0  0  0  0  0  0  0  0  0
   -2.1956    2.3534   -1.0187 H   0  0  0  0  0  0  0  0  0  0  0  0
   -3.5021    3.0913    0.0540 H   0  0  0  0  0  0  0  0  0  0  0  0
   -2.1168    3.2965    0.0000 H   0  0  0  0  0  0  0  0  0  0  0  0
   -2.7662    0.2089    1.8073 H   0  0  0  0  0  0  0  0  0  0  0  0
   -2.5478   -4.4940    0.2014 H   0  0  0  0  0  0  0  0  0  0  0  0
   -0.2620   -5.4007    0.2160 H   0  0  0  0  0  0  0  0  0  0  0  0
    1.7197   -3.9076    0.0354 H   0  0  0  0  0  0  0  0  0  0  0  0
   -1.2298    0.1433   -1.3618 H   0  0  0  0  0  0  0  0  0  0  0  0
   -1.0327    0.3548    0.4687 H   0  0  0  0  0  0  0  0  0  0  0  0
    0.6185    2.3156   -0.5523 H   0  0  0  0  0  0  0  0  0  0  0  0
    3.0648    2.5378   -0.1779 H   0  0  0  0  0  0  0  0  0  0  0  0
    4.4514    0.5048    0.1297 H   0  0  0  0  0  0  0  0  0  0  0  0
    3.4333   -1.7676    0.1144 H   0  0  0  0  0  0  0  0  0  0  0  0
  1  2  1  0  0  0  0
  1 22  1  0  0  0  0
  1 23  1  0  0  0  0
  1 24  1  0  0  0  0
  2 21  1  0  0  0  0
  2  3  2  0  0  0  0
  3  4  1  0  0  0  0
  3 25  1  0  0  0  0
  4  5  1  0  0  0  0
  4 20  1  0  0  0  0
  5  6  2  0  0  0  0
  5  7  1  0  0  0  0
  7 12  2  0  0  0  0
  7  8  1  0  0  0  0
  8  9  2  0  0  0  0
  8 26  1  0  0  0  0
  9 10  1  0  0  0  0
  9 27  1  0  0  0  0
 10 11  2  0  0  0  0
 10 28  1  0  0  0  0
 11 19  1  0  0  0  0
 11 12  1  0  0  0  0
 12 13  1  0  0  0  0
 13 14  1  0  0  0  0
 13 29  1  0  0  0  0
 13 30  1  0  0  0  0
 14 19  2  0  0  0  0
 14 15  1  0  0  0  0
 15 16  2  0  0  0  0
 15 31  1  0  0  0  0
 16 17  1  0  0  0  0
 16 32  1  0  0  0  0
 17 18  2  0  0  0  0
 17 33  1  0  0  0  0
 18 19  1  0  0  0  0
 18 34  1  0  0  0  0
 20 21  2  0  0  0  0
M  END
$$$$
