
 OpenBabel03202621392D

 55 56  0  0  1  0  0  0  0  0999 V2000
    9.4693   -3.5878    0.0000 C   0  0  0  0  0  0  0  0  0  0  0  0
    8.6032   -3.0878    0.0000 C   0  0  0  0  0  0  0  0  0  0  0  0
    8.4240   -1.8899    0.2607 O   0  0  0  0  0  0  0  0  0  0  0  0
    7.3719   -3.8932   -0.2668 C   0  0  0  0  0  0  0  0  0  0  0  0
    6.8232   -4.5270    0.9941 C   0  0  0  0  0  0  0  0  0  0  0  0
    6.9595   -4.0285    2.1146 O   0  0  0  0  0  0  0  0  0  0  0  0
    5.9920   -5.7719    0.8003 C   0  0  2  0  0  0  0  0  0  0  0  0
    6.8222   -6.8281    0.3381 O   0  0  0  0  0  0  0  0  0  0  0  0
    4.8969   -5.4140   -0.1930 C   0  0  0  0  0  0  0  0  0  0  0  0
    5.1386   -5.4866   -1.4070 O   0  0  0  0  0  0  0  0  0  0  0  0
    3.5322   -5.0491    0.3480 C   0  0  2  0  0  0  0  0  0  0  0  0
    2.8003   -6.4062    0.1790 C   0  0  0  0  0  0  0  0  0  0  0  0
    1.3252   -6.5128    0.5402 C   0  0  0  0  0  0  0  0  0  0  0  0
    0.6631   -5.2697    0.5698 O   0  0  0  0  0  0  0  0  0  0  0  0
    2.8646   -3.9180   -0.4396 C   0  0  0  0  0  0  0  0  0  0  0  0
    2.0601   -4.1947   -1.3378 O   0  0  0  0  0  0  0  0  0  0  0  0
    3.1913   -2.4609   -0.2467 C   0  0  0  0  0  0  0  0  0  0  0  0
    4.4274   -2.0292    0.2425 C   0  0  0  0  0  0  0  0  0  0  0  0
    4.8958   -0.7375   -0.0306 C   0  0  0  0  0  0  0  0  0  0  0  0
    4.1376    0.1413   -0.7987 C   0  0  0  0  0  0  0  0  0  0  0  0
    2.8567   -0.2359   -1.1848 C   0  0  0  0  0  0  0  0  0  0  0  0
    2.3499   -1.4834   -0.8084 C   0  0  0  0  0  0  0  0  0  0  0  0
    0.9860   -1.7143   -1.0244 O   0  0  0  0  0  0  0  0  0  0  0  0
    0.2203   -1.1456   -0.0027 C   0  0  0  0  0  0  0  0  0  0  0  0
   -0.1516   -1.7529    0.9893 O   0  0  0  0  0  0  0  0  0  0  0  0
   -0.1353    0.3341   -0.2844 C   0  0  2  0  0  0  0  0  0  0  0  0
    0.6278    1.2782    0.6398 C   0  0  0  0  0  0  0  0  0  0  0  0
   -0.2409    2.5122    0.7283 C   0  0  1  0  0  0  0  0  0  0  0  0
    0.2467    3.4449   -0.1361 F   0  0  0  0  0  0  0  0  0  0  0  0
   -1.6210    2.0705    0.2630 C   0  0  0  0  0  0  0  0  0  0  0  0
   -1.5628    0.6163    0.0277 N   0  0  0  0  0  0  0  0  0  0  0  0
    9.5548   -3.6981    1.1075 H   0  0  0  0  0  0  0  0  0  0  0  0
   10.1383   -2.7748   -0.3744 H   0  0  0  0  0  0  0  0  0  0  0  0
   10.3960   -4.1228    0.0000 H   0  0  0  0  0  0  0  0  0  0  0  0
    7.6169   -4.6754   -0.9981 H   0  0  0  0  0  0  0  0  0  0  0  0
    6.6227   -3.2568   -0.7409 H   0  0  0  0  0  0  0  0  0  0  0  0
    5.5560   -6.0901    1.7531 H   0  0  0  0  0  0  0  0  0  0  0  0
    6.5888   -7.0162   -0.5933 H   0  0  0  0  0  0  0  0  0  0  0  0
    3.5929   -4.7675    1.4041 H   0  0  0  0  0  0  0  0  0  0  0  0
    2.8930   -6.7243   -0.8730 H   0  0  0  0  0  0  0  0  0  0  0  0
    3.3389   -7.1842    0.7368 H   0  0  0  0  0  0  0  0  0  0  0  0
    0.8212   -7.1654   -0.1794 H   0  0  0  0  0  0  0  0  0  0  0  0
    1.2186   -6.9724    1.5263 H   0  0  0  0  0  0  0  0  0  0  0  0
    0.6843   -4.9096   -0.3451 H   0  0  0  0  0  0  0  0  0  0  0  0
    5.0738   -2.6763    0.8160 H   0  0  0  0  0  0  0  0  0  0  0  0
    5.8899   -0.4294    0.3039 H   0  0  0  0  0  0  0  0  0  0  0  0
    4.5230    1.1180   -1.0678 H   0  0  0  0  0  0  0  0  0  0  0  0
    2.2563    0.4568   -1.7627 H   0  0  0  0  0  0  0  0  0  0  0  0
    0.0227    0.5619   -1.3435 H   0  0  0  0  0  0  0  0  0  0  0  0
    0.7649    0.8342    1.6325 H   0  0  0  0  0  0  0  0  0  0  0  0
    1.6120    1.5446    0.2503 H   0  0  0  0  0  0  0  0  0  0  0  0
   -0.2383    2.9438    1.7334 H   0  0  0  0  0  0  0  0  0  0  0  0
   -1.8977    2.5910   -0.6605 H   0  0  0  0  0  0  0  0  0  0  0  0
   -2.3822    2.3002    1.0157 H   0  0  0  0  0  0  0  0  0  0  0  0
   -1.8008    0.1234    0.8946 H   0  0  0  0  0  0  0  0  0  0  0  0
  1  2  1  0  0  0  0
  1 32  1  0  0  0  0
  1 33  1  0  0  0  0
  1 34  1  0  0  0  0
  2  3  2  0  0  0  0
  2  4  1  0  0  0  0
  4  5  1  0  0  0  0
  4 35  1  0  0  0  0
  4 36  1  0  0  0  0
  5  6  2  0  0  0  0
  5  7  1  0  0  0  0
  7  8  1  0  0  0  0
  7  9  1  0  0  0  0
  7 37  1  1  0  0  0
  8 38  1  0  0  0  0
  9 10  2  0  0  0  0
  9 11  1  0  0  0  0
 11 12  1  0  0  0  0
 11 15  1  0  0  0  0
 11 39  1  1  0  0  0
 12 13  1  0  0  0  0
 12 40  1  0  0  0  0
 12 41  1  0  0  0  0
 13 14  1  0  0  0  0
 13 42  1  0  0  0  0
 13 43  1  0  0  0  0
 14 44  1  0  0  0  0
 15 16  2  0  0  0  0
 15 17  1  0  0  0  0
 17 22  2  0  0  0  0
 17 18  1  0  0  0  0
 18 19  2  0  0  0  0
 18 45  1  0  0  0  0
 19 20  1  0  0  0  0
 19 46  1  0  0  0  0
 20 21  2  0  0  0  0
 20 47  1  0  0  0  0
 21 22  1  0  0  0  0
 21 48  1  0  0  0  0
 22 23  1  0  0  0  0
 23 24  1  0  0  0  0
 24 25  2  0  0  0  0
 26 24  1  0  0  0  0
 26 27  1  0  0  0  0
 26 31  1  0  0  0  0
 26 49  1  6  0  0  0
 27 28  1  0  0  0  0
 27 50  1  0  0  0  0
 27 51  1  0  0  0  0
 28 29  1  0  0  0  0
 28 30  1  0  0  0  0
 28 52  1  1  0  0  0
 30 31  1  0  0  0  0
 30 53  1  0  0  0  0
 30 54  1  0  0  0  0
 31 55  1  0  0  0  0
M  END
$$$$
