
 OpenBabel03202621302D

 22 22  0  0  0  0  0  0  0  0999 V2000
    3.5737   -0.6172    0.0052 C   0  0  0  0  0  0  0  0  0  0  0  0
    2.3519   -0.0622    0.0010 C   0  0  0  0  0  0  0  0  0  0  0  0
    1.0451   -0.7694    0.0176 C   0  0  0  0  0  0  0  0  0  0  0  0
    1.0190   -2.1808    0.0053 C   0  0  0  0  0  0  0  0  0  0  0  0
   -0.1771   -2.8974    0.0064 C   0  0  0  0  0  0  0  0  0  0  0  0
   -1.3819   -2.2195    0.0074 C   0  0  0  0  0  0  0  0  0  0  0  0
   -1.3894   -0.8261    0.0107 C   0  0  0  0  0  0  0  0  0  0  0  0
   -0.1954   -0.0690    0.0364 C   0  0  0  0  0  0  0  0  0  0  0  0
   -0.2400    1.4584    0.0270 C   0  0  0  0  0  0  0  0  0  0  0  0
   -1.8536    2.2320    0.3811 S   0  0  0  0  0  0  0  0  0  0  0  0
   -1.4478    3.9121    0.1183 C   0  0  0  0  0  0  0  0  0  0  0  0
   -0.2950    4.3104    0.0026 O   0  0  0  0  0  0  0  0  0  0  0  0
    3.7562   -1.6841    0.0196 H   0  0  0  0  0  0  0  0  0  0  0  0
    4.4580    0.0133   -0.0061 H   0  0  0  0  0  0  0  0  0  0  0  0
    2.3221    1.0239   -0.0179 H   0  0  0  0  0  0  0  0  0  0  0  0
    1.9364   -2.7618   -0.0085 H   0  0  0  0  0  0  0  0  0  0  0  0
   -0.1606   -3.9839   -0.0001 H   0  0  0  0  0  0  0  0  0  0  0  0
   -2.3204   -2.7672    0.0018 H   0  0  0  0  0  0  0  0  0  0  0  0
   -2.3648   -0.3472   -0.0049 H   0  0  0  0  0  0  0  0  0  0  0  0
    0.4464    1.8368    0.7920 H   0  0  0  0  0  0  0  0  0  0  0  0
    0.0957    1.7996   -0.9592 H   0  0  0  0  0  0  0  0  0  0  0  0
   -2.3074    4.5986    0.0667 H   0  0  0  0  0  0  0  0  0  0  0  0
  1  2  2  0  0  0  0
  1 13  1  0  0  0  0
  1 14  1  0  0  0  0
  2  3  1  0  0  0  0
  2 15  1  0  0  0  0
  3  8  2  0  0  0  0
  3  4  1  0  0  0  0
  4  5  2  0  0  0  0
  4 16  1  0  0  0  0
  5  6  1  0  0  0  0
  5 17  1  0  0  0  0
  6  7  2  0  0  0  0
  6 18  1  0  0  0  0
  7  8  1  0  0  0  0
  7 19  1  0  0  0  0
  8  9  1  0  0  0  0
  9 10  1  0  0  0  0
  9 20  1  0  0  0  0
  9 21  1  0  0  0  0
 10 11  1  0  0  0  0
 11 12  2  0  0  0  0
 11 22  1  0  0  0  0
M  END
$$$$
