
 OpenBabel03202621282D

 17 18  0  0  1  0  0  0  0  0999 V2000
   -1.8605    0.6045    0.0000 C   0  0  0  0  0  0  0  0  0  0  0  0
   -0.9945    0.1045    0.0000 C   0  0  1  0  0  0  0  0  0  0  0  0
   -0.9945    1.1045    0.0000 N   0  0  0  0  0  0  0  0  0  0  0  0
   -1.8605    1.6045    0.0000 C   0  0  0  0  0  0  0  0  0  0  0  0
   -1.8605    2.6045    0.0000 S   0  0  0  0  0  0  0  0  0  0  0  0
   -2.7266    1.1045    0.0000 O   0  0  0  0  0  0  0  0  0  0  0  0
   -2.7266    0.1045    0.0000 C   0  0  0  0  0  0  0  0  0  0  0  0
   -1.8605   -0.3955    0.0000 C   0  0  0  0  0  0  0  0  0  0  0  0
   -1.8605   -1.3955    0.0000 O   0  0  0  0  0  0  0  0  0  0  0  0
   -2.7266   -1.8955    0.0000 C   0  0  0  0  0  0  0  0  0  0  0  0
   -3.5926   -1.3955    0.0000 C   0  0  0  0  0  0  0  0  0  0  0  0
   -3.5926   -0.3955    0.0000 C   0  0  0  0  0  0  0  0  0  0  0  0
   -4.4586    0.1045    0.0000 O   0  0  0  0  0  0  0  0  0  0  0  0
   -1.4013   -0.8090    0.0000 C   0  0  0  0  0  0  0  0  0  0  0  0
   -0.6581   -1.4781    0.0000 C   0  0  0  0  0  0  0  0  0  0  0  0
    0.2079   -0.9781    0.0000 C   0  0  0  0  0  0  0  0  0  0  0  0
    0.0000   -0.0000    0.0000 O   0  0  0  0  0  0  0  0  0  0  0  0
  2  1  1  6  0  0  0
  2 17  1  0  0  0  0
  2  3  1  0  0  0  0
  2 14  1  0  0  0  0
  3  4  1  0  0  0  0
  4  5  2  0  0  0  0
  4  6  1  0  0  0  0
  6  7  1  0  0  0  0
  7 12  1  0  0  0  0
  7  8  2  0  0  0  0
  8  9  1  0  0  0  0
  9 10  1  0  0  0  0
 10 11  1  0  0  0  0
 11 12  1  0  0  0  0
 12 13  2  0  0  0  0
 14 15  1  0  0  0  0
 15 16  1  0  0  0  0
 16 17  1  0  0  0  0
M  END
$$$$
