
 OpenBabel03202621342D

 28 29  0  0  0  0  0  0  0  0999 V2000
    3.4641    1.0000    0.0000 C   0  0  0  0  0  0  0  0  0  0  0  0
    2.5981    1.5000    0.0000 S   0  0  0  0  0  0  0  0  0  0  0  0
    1.0088    0.9766   -0.3161 C   0  0  0  0  0  0  0  0  0  0  0  0
    0.1367    1.8074   -0.5150 O   0  0  0  0  0  0  0  0  0  0  0  0
    0.8755   -0.3755   -0.2575 N   0  0  0  0  0  0  0  0  0  0  0  0
   -0.3282   -1.0881   -0.2102 C   0  0  0  0  0  0  0  0  0  0  0  0
   -0.2239   -2.4758   -0.1575 C   0  0  0  0  0  0  0  0  0  0  0  0
   -1.3737   -3.2556   -0.0691 C   0  0  0  0  0  0  0  0  0  0  0  0
   -2.6582   -2.6811   -0.0301 C   0  0  0  0  0  0  0  0  0  0  0  0
   -3.8655   -3.5205    0.0340 C   0  0  0  0  0  0  0  0  0  0  0  0
   -3.6924   -4.8573    0.0401 N   0  0  0  0  0  0  0  0  0  0  0  0
   -4.8059   -5.6084    0.0463 C   0  0  0  0  0  0  0  0  0  0  0  0
   -6.0733   -5.0809    0.0484 C   0  0  0  0  0  0  0  0  0  0  0  0
   -6.1461   -3.7092    0.0501 C   0  0  0  0  0  0  0  0  0  0  0  0
   -5.0666   -2.9086    0.0444 N   0  0  0  0  0  0  0  0  0  0  0  0
   -2.7376   -1.2806   -0.0735 C   0  0  0  0  0  0  0  0  0  0  0  0
   -1.5878   -0.4914   -0.1667 C   0  0  0  0  0  0  0  0  0  0  0  0
    3.3681    0.4676    0.9672 H   0  0  0  0  0  0  0  0  0  0  0  0
    4.1538    1.8520    0.1504 H   0  0  0  0  0  0  0  0  0  0  0  0
    4.3907    0.4650    0.0000 H   0  0  0  0  0  0  0  0  0  0  0  0
    1.7321   -0.9011   -0.1799 H   0  0  0  0  0  0  0  0  0  0  0  0
    0.7430   -2.9695   -0.1842 H   0  0  0  0  0  0  0  0  0  0  0  0
   -1.2626   -4.3393   -0.0313 H   0  0  0  0  0  0  0  0  0  0  0  0
   -4.6380   -6.6807    0.0441 H   0  0  0  0  0  0  0  0  0  0  0  0
   -6.9549   -5.7049    0.0440 H   0  0  0  0  0  0  0  0  0  0  0  0
   -7.1024   -3.1950    0.0519 H   0  0  0  0  0  0  0  0  0  0  0  0
   -3.7055   -0.7818   -0.0349 H   0  0  0  0  0  0  0  0  0  0  0  0
   -1.7230    0.5852   -0.1890 H   0  0  0  0  0  0  0  0  0  0  0  0
  1  2  1  0  0  0  0
  1 18  1  0  0  0  0
  1 19  1  0  0  0  0
  1 20  1  0  0  0  0
  2  3  1  0  0  0  0
  3  4  2  0  0  0  0
  3  5  1  0  0  0  0
  5  6  1  0  0  0  0
  5 21  1  0  0  0  0
  6 17  2  0  0  0  0
  6  7  1  0  0  0  0
  7  8  2  0  0  0  0
  7 22  1  0  0  0  0
  8  9  1  0  0  0  0
  8 23  1  0  0  0  0
  9 10  1  0  0  0  0
  9 16  2  0  0  0  0
 10 15  2  0  0  0  0
 10 11  1  0  0  0  0
 11 12  2  0  0  0  0
 12 13  1  0  0  0  0
 12 24  1  0  0  0  0
 13 14  2  0  0  0  0
 13 25  1  0  0  0  0
 14 15  1  0  0  0  0
 14 26  1  0  0  0  0
 16 17  1  0  0  0  0
 16 27  1  0  0  0  0
 17 28  1  0  0  0  0
M  END
$$$$
