
 OpenBabel03202621352D

 23 23  0  0  1  0  0  0  0  0999 V2000
    0.8695   -5.5591    0.0646 C   0  0  0  0  0  0  0  0  0  0  0  0
    2.5592   -5.0420   -0.2933 S   0  0  0  0  0  0  0  0  0  0  0  0
    2.6653   -3.2824   -0.1134 C   0  0  0  0  0  0  0  0  0  0  0  0
    3.7603   -2.7756    0.0525 O   0  0  0  0  0  0  0  0  0  0  0  0
    1.3905   -2.4711   -0.2475 C   0  0  0  0  0  0  0  0  0  0  0  0
    1.5029   -0.9673    0.0706 C   0  0  1  0  0  0  0  0  0  0  0  0
    2.5374   -0.2129   -0.6375 N   0  0  0  0  0  0  0  0  0  0  0  0
    0.2218   -0.2674   -0.3463 C   0  0  0  0  0  0  0  0  0  0  0  0
   -1.0693   -0.5386    0.2843 C   0  0  0  0  0  0  0  0  0  0  0  0
   -0.3659    0.7714    0.6296 C   0  0  0  0  0  0  0  0  0  0  0  0
    0.2658   -4.8410    0.6184 H   0  0  0  0  0  0  0  0  0  0  0  0
    0.9256   -6.4649    0.6787 H   0  0  0  0  0  0  0  0  0  0  0  0
    0.3404   -5.8377   -0.8534 H   0  0  0  0  0  0  0  0  0  0  0  0
    0.9901   -2.6250   -1.2505 H   0  0  0  0  0  0  0  0  0  0  0  0
    0.6777   -2.8682    0.4782 H   0  0  0  0  0  0  0  0  0  0  0  0
    1.6718   -0.8488    1.1484 H   0  0  0  0  0  0  0  0  0  0  0  0
    3.4535   -0.5215   -0.3072 H   0  0  0  0  0  0  0  0  0  0  0  0
    2.4786    0.7689   -0.3702 H   0  0  0  0  0  0  0  0  0  0  0  0
    0.1932   -0.0560   -1.4131 H   0  0  0  0  0  0  0  0  0  0  0  0
   -1.1358   -1.3093    1.0412 H   0  0  0  0  0  0  0  0  0  0  0  0
   -1.9623   -0.4664   -0.3297 H   0  0  0  0  0  0  0  0  0  0  0  0
    0.2474    1.6208    0.2668 H   0  0  0  0  0  0  0  0  0  0  0  0
   -1.2023    1.4988    0.5152 H   0  0  0  0  0  0  0  0  0  0  0  0
  1  2  1  0  0  0  0
  1 11  1  0  0  0  0
  1 12  1  0  0  0  0
  1 13  1  0  0  0  0
  2  3  1  0  0  0  0
  3  4  2  0  0  0  0
  3  5  1  0  0  0  0
  5  6  1  0  0  0  0
  5 14  1  0  0  0  0
  5 15  1  0  0  0  0
  6  7  1  0  0  0  0
  6  8  1  0  0  0  0
  6 16  1  1  0  0  0
  7 17  1  0  0  0  0
  7 18  1  0  0  0  0
  8 10  1  0  0  0  0
  8  9  1  0  0  0  0
  8 19  1  0  0  0  0
  9 10  1  0  0  0  0
  9 20  1  0  0  0  0
  9 21  1  0  0  0  0
 10 22  1  0  0  0  0
 10 23  1  0  0  0  0
M  END
$$$$
