
 OpenBabel03202621352D

 25 24  0  0  1  0  0  0  0  0999 V2000
    2.5766    2.2912   -0.0672 C   0  0  0  0  0  0  0  0  0  0  0  0
    1.2998    3.1131    0.1245 C   0  0  0  0  0  0  0  0  0  0  0  0
   -0.3660    2.3660    0.0000 C   0  0  0  0  0  0  0  0  0  0  0  0
   -0.8660    1.5000    0.0000 C   0  0  1  0  0  0  0  0  0  0  0  0
   -2.3724    2.5231    0.0628 C   0  0  0  0  0  0  0  0  0  0  0  0
   -1.3660    0.6340    0.0000 C   0  0  0  0  0  0  0  0  0  0  0  0
   -2.2361    0.4107    1.3061 O   0  0  0  0  0  0  0  0  0  0  0  0
    0.0000    1.0000    0.0000 S   0  0  0  0  0  0  0  0  0  0  0  0
    0.0000    0.0000    0.0000 C   0  0  0  0  0  0  0  0  0  0  0  0
    2.5967    1.7873   -1.0407 H   0  0  0  0  0  0  0  0  0  0  0  0
    3.4531    2.9451   -0.0204 H   0  0  0  0  0  0  0  0  0  0  0  0
    2.6984    1.5441    0.7264 H   0  0  0  0  0  0  0  0  0  0  0  0
    1.2995    3.9368   -0.6073 H   0  0  0  0  0  0  0  0  0  0  0  0
    1.3434    3.5844    1.1181 H   0  0  0  0  0  0  0  0  0  0  0  0
   -0.5411    3.0106   -0.9451 H   0  0  0  0  0  0  0  0  0  0  0  0
   -0.6273    3.0938    0.8543 H   0  0  0  0  0  0  0  0  0  0  0  0
   -2.3579    3.3835   -0.6303 H   0  0  0  0  0  0  0  0  0  0  0  0
   -2.5533    2.8784    1.0932 H   0  0  0  0  0  0  0  0  0  0  0  0
   -3.3085    2.0014   -0.2135 H   0  0  0  0  0  0  0  0  0  0  0  0
   -1.7230   -0.4343   -0.4609 H   0  0  0  0  0  0  0  0  0  0  0  0
   -2.1760    0.7625   -0.8355 H   0  0  0  0  0  0  0  0  0  0  0  0
   -3.0657    0.0035    1.0006 H   0  0  0  0  0  0  0  0  0  0  0  0
    0.5684   -0.2060    0.9560 H   0  0  0  0  0  0  0  0  0  0  0  0
    0.7666   -0.1950   -0.8008 H   0  0  0  0  0  0  0  0  0  0  0  0
    0.0000   -1.0700    0.0000 H   0  0  0  0  0  0  0  0  0  0  0  0
  1  2  1  0  0  0  0
  1 10  1  0  0  0  0
  1 11  1  0  0  0  0
  1 12  1  0  0  0  0
  2  3  1  0  0  0  0
  2 13  1  0  0  0  0
  2 14  1  0  0  0  0
  3  4  1  0  0  0  0
  3 15  1  0  0  0  0
  3 16  1  0  0  0  0
  4  5  1  0  0  0  0
  4  6  1  0  0  0  0
  4  8  1  1  0  0  0
  5 17  1  0  0  0  0
  5 18  1  0  0  0  0
  5 19  1  0  0  0  0
  6  7  1  0  0  0  0
  6 20  1  0  0  0  0
  6 21  1  0  0  0  0
  7 22  1  0  0  0  0
  8  9  1  0  0  0  0
  9 23  1  0  0  0  0
  9 24  1  0  0  0  0
  9 25  1  0  0  0  0
M  END
$$$$
