
 OpenBabel03202621282D

 10 10  0  0  0  0  0  0  0  0999 V2000
    1.7765    2.8978    0.0000 C   0  0  0  0  0  0  0  0  0  0  0  0
    0.8105    2.6390    0.0000 S   0  0  0  0  0  0  0  0  0  0  0  0
    0.5517    1.6730    0.0000 C   0  0  0  0  0  0  0  0  0  0  0  0
   -0.4142    1.4142    0.0000 O   0  0  0  0  0  0  0  0  0  0  0  0
    1.2588    0.9659    0.0000 C   0  0  0  0  0  0  0  0  0  0  0  0
    1.0000    0.0000    0.0000 C   0  0  0  0  0  0  0  0  0  0  0  0
    1.9968   -0.0802    0.0000 C   0  0  0  0  0  0  0  0  0  0  0  0
    2.9936   -0.1605    0.0000 N   0  0  0  0  0  0  0  0  0  0  0  0
    0.5000   -0.8660    0.0000 C   0  0  0  0  0  0  0  0  0  0  0  0
    0.0000   -0.0000    0.0000 C   0  0  0  0  0  0  0  0  0  0  0  0
  1  2  1  0  0  0  0
  2  3  1  0  0  0  0
  3  4  2  0  0  0  0
  3  5  1  0  0  0  0
  5  6  1  0  0  0  0
  6 10  1  0  0  0  0
  6  7  1  0  0  0  0
  6  9  1  0  0  0  0
  7  8  3  0  0  0  0
  9 10  1  0  0  0  0
M  END
$$$$
