
 OpenBabel03202621332D

 37 39  0  0  0  0  0  0  0  0999 V2000
    2.0000    0.0000    0.0000 C   0  0  0  0  0  0  0  0  0  0  0  0
    1.5000   -0.8660    0.0000 O   0  0  0  0  0  0  0  0  0  0  0  0
    0.1746   -0.7696    0.3245 C   0  0  0  0  0  0  0  0  0  0  0  0
   -0.4720   -1.9916    0.4800 C   0  0  0  0  0  0  0  0  0  0  0  0
   -1.8403   -2.0165    0.7052 C   0  0  0  0  0  0  0  0  0  0  0  0
   -2.5746   -0.8221    0.7587 C   0  0  0  0  0  0  0  0  0  0  0  0
   -4.0214   -0.9113    0.7478 C   0  0  0  0  0  0  0  0  0  0  0  0
   -4.7507   -2.0047    0.7578 N   0  0  0  0  0  0  0  0  0  0  0  0
   -5.9937   -1.5869    0.3405 C   0  0  0  0  0  0  0  0  0  0  0  0
   -6.9965   -2.6375    0.0516 C   0  0  0  0  0  0  0  0  0  0  0  0
   -8.3746   -2.2820    0.3132 N   0  0  0  0  0  0  0  0  0  0  0  0
   -9.4629   -2.7885   -0.3349 C   0  0  0  0  0  0  0  0  0  0  0  0
  -10.5227   -2.1405    0.2465 C   0  0  0  0  0  0  0  0  0  0  0  0
  -11.9598   -2.2302   -0.0620 C   0  0  0  0  0  0  0  0  0  0  0  0
  -10.0568   -1.3150    1.2399 N   0  0  0  0  0  0  0  0  0  0  0  0
   -8.7395   -1.4408    1.2952 N   0  0  0  0  0  0  0  0  0  0  0  0
   -5.9736   -0.2198    0.1443 C   0  0  0  0  0  0  0  0  0  0  0  0
   -6.9132    0.8042   -0.3446 C   0  0  0  0  0  0  0  0  0  0  0  0
   -4.7124    0.2227    0.4303 O   0  0  0  0  0  0  0  0  0  0  0  0
   -1.9102    0.4051    0.6736 C   0  0  0  0  0  0  0  0  0  0  0  0
   -0.5372    0.4328    0.4555 C   0  0  0  0  0  0  0  0  0  0  0  0
    2.8569   -0.2876    0.6438 H   0  0  0  0  0  0  0  0  0  0  0  0
    2.3600    0.0014   -1.0504 H   0  0  0  0  0  0  0  0  0  0  0  0
    2.5350    0.9266    0.0000 H   0  0  0  0  0  0  0  0  0  0  0  0
    0.0833   -2.9210    0.3884 H   0  0  0  0  0  0  0  0  0  0  0  0
   -2.3475   -2.9770    0.7762 H   0  0  0  0  0  0  0  0  0  0  0  0
   -6.7902   -3.5404    0.6372 H   0  0  0  0  0  0  0  0  0  0  0  0
   -6.9239   -2.9009   -1.0110 H   0  0  0  0  0  0  0  0  0  0  0  0
   -9.3891   -3.5246   -1.1221 H   0  0  0  0  0  0  0  0  0  0  0  0
  -12.2641   -1.3801   -0.6804 H   0  0  0  0  0  0  0  0  0  0  0  0
  -12.1849   -3.1509   -0.6097 H   0  0  0  0  0  0  0  0  0  0  0  0
  -12.5563   -2.2248    0.8556 H   0  0  0  0  0  0  0  0  0  0  0  0
   -6.4195    1.4485   -1.0813 H   0  0  0  0  0  0  0  0  0  0  0  0
   -7.7835    0.3569   -0.8297 H   0  0  0  0  0  0  0  0  0  0  0  0
   -7.2548    1.4354    0.4809 H   0  0  0  0  0  0  0  0  0  0  0  0
   -2.4608    1.3420    0.7188 H   0  0  0  0  0  0  0  0  0  0  0  0
   -0.0500    1.3979    0.3439 H   0  0  0  0  0  0  0  0  0  0  0  0
  1  2  1  0  0  0  0
  1 22  1  0  0  0  0
  1 23  1  0  0  0  0
  1 24  1  0  0  0  0
  2  3  1  0  0  0  0
  3 21  2  0  0  0  0
  3  4  1  0  0  0  0
  4  5  2  0  0  0  0
  4 25  1  0  0  0  0
  5  6  1  0  0  0  0
  5 26  1  0  0  0  0
  6  7  1  0  0  0  0
  6 20  2  0  0  0  0
  7 19  1  0  0  0  0
  7  8  2  0  0  0  0
  8  9  1  0  0  0  0
  9 10  1  0  0  0  0
  9 17  2  0  0  0  0
 10 11  1  0  0  0  0
 10 27  1  0  0  0  0
 10 28  1  0  0  0  0
 11 16  1  0  0  0  0
 11 12  1  0  0  0  0
 12 13  2  0  0  0  0
 12 29  1  0  0  0  0
 13 14  1  0  0  0  0
 13 15  1  0  0  0  0
 14 30  1  0  0  0  0
 14 31  1  0  0  0  0
 14 32  1  0  0  0  0
 15 16  2  0  0  0  0
 17 18  1  0  0  0  0
 17 19  1  0  0  0  0
 18 33  1  0  0  0  0
 18 34  1  0  0  0  0
 18 35  1  0  0  0  0
 20 21  1  0  0  0  0
 20 36  1  0  0  0  0
 21 37  1  0  0  0  0
M  END
$$$$
