
 OpenBabel03202621352D

 28 28  0  0  0  0  0  0  0  0999 V2000
    0.8090    1.5878    0.0000 C   0  0  0  0  0  0  0  0  0  0  0  0
    0.8090    0.5878    0.0000 C   0  0  0  0  0  0  0  0  0  0  0  0
    0.6985   -0.3495    1.0497 C   0  0  0  0  0  0  0  0  0  0  0  0
    0.0925   -1.4873    0.4692 N   0  0  0  0  0  0  0  0  0  0  0  0
    0.9467   -2.6410    0.1764 C   0  0  0  0  0  0  0  0  0  0  0  0
    2.1146   -2.0601   -0.6160 C   0  0  0  0  0  0  0  0  0  0  0  0
    3.3184   -2.8752   -0.7797 C   0  0  0  0  0  0  0  0  0  0  0  0
    4.4736   -2.3600    0.0000 N   0  0  0  0  0  0  0  0  0  0  0  0
    5.0614   -3.1691    0.0000 C   0  0  0  0  0  0  0  0  0  0  0  0
    4.8804   -1.4465    0.0000 C   0  0  0  0  0  0  0  0  0  0  0  0
   -0.5537   -1.0831   -0.6280 N   0  0  0  0  0  0  0  0  0  0  0  0
    0.0571    0.0271   -1.0562 N   0  0  0  0  0  0  0  0  0  0  0  0
    1.8496    1.7601    0.3601 H   0  0  0  0  0  0  0  0  0  0  0  0
    0.0731    1.8105    0.8123 H   0  0  0  0  0  0  0  0  0  0  0  0
    0.8090    2.6578    0.0000 H   0  0  0  0  0  0  0  0  0  0  0  0
    0.9829   -0.3566    2.0833 H   0  0  0  0  0  0  0  0  0  0  0  0
    0.3604   -3.3830   -0.3879 H   0  0  0  0  0  0  0  0  0  0  0  0
    1.2248   -3.0570    1.1537 H   0  0  0  0  0  0  0  0  0  0  0  0
    1.7746   -1.7214   -1.6215 H   0  0  0  0  0  0  0  0  0  0  0  0
    2.4452   -1.1442   -0.1185 H   0  0  0  0  0  0  0  0  0  0  0  0
    3.0483   -3.9173   -0.4858 H   0  0  0  0  0  0  0  0  0  0  0  0
    3.5594   -2.9441   -1.8531 H   0  0  0  0  0  0  0  0  0  0  0  0
    4.8489   -3.5691    1.0274 H   0  0  0  0  0  0  0  0  0  0  0  0
    6.1575   -2.8386   -0.0063 H   0  0  0  0  0  0  0  0  0  0  0  0
    5.6903   -4.0348    0.0000 H   0  0  0  0  0  0  0  0  0  0  0  0
    4.8912   -1.1726   -1.0904 H   0  0  0  0  0  0  0  0  0  0  0  0
    4.1477   -0.8594    0.5924 H   0  0  0  0  0  0  0  0  0  0  0  0
    5.3157   -0.4690    0.0000 H   0  0  0  0  0  0  0  0  0  0  0  0
  1  2  1  0  0  0  0
  1 13  1  0  0  0  0
  1 14  1  0  0  0  0
  1 15  1  0  0  0  0
  2 12  1  0  0  0  0
  2  3  2  0  0  0  0
  3  4  1  0  0  0  0
  3 16  1  0  0  0  0
  4  5  1  0  0  0  0
  4 11  1  0  0  0  0
  5  6  1  0  0  0  0
  5 17  1  0  0  0  0
  5 18  1  0  0  0  0
  6  7  1  0  0  0  0
  6 19  1  0  0  0  0
  6 20  1  0  0  0  0
  7  8  1  0  0  0  0
  7 21  1  0  0  0  0
  7 22  1  0  0  0  0
  8  9  1  0  0  0  0
  8 10  1  0  0  0  0
  9 23  1  0  0  0  0
  9 24  1  0  0  0  0
  9 25  1  0  0  0  0
 10 26  1  0  0  0  0
 10 27  1  0  0  0  0
 10 28  1  0  0  0  0
 11 12  2  0  0  0  0
M  END
$$$$
