
 OpenBabel03202621392D

 28 28  0  0  1  0  0  0  0  0999 V2000
    0.9327    1.8700   -2.4489 C   0  5  0  0  0  0  0  0  0  0  0  0
    1.4108    1.5309   -1.4481 N   0  3  0  0  0  0  0  0  0  0  0  0
    2.0631    1.2059   -0.1649 C   0  0  1  0  0  0  0  0  0  0  0  0
    2.0144   -0.2928    0.0871 C   0  0  0  0  0  0  0  0  0  0  0  0
    2.8876   -1.0538   -0.3395 O   0  0  0  0  0  0  0  0  0  0  0  0
    1.0571   -0.6718    1.0146 O   0  0  0  0  0  0  0  0  0  0  0  0
   -0.2262   -0.0733    0.8366 C   0  0  0  0  0  0  0  0  0  0  0  0
   -0.5289    1.1487    1.3128 C   0  0  0  0  0  0  0  0  0  0  0  0
   -1.6478    1.9255    0.6991 C   0  0  0  0  0  0  0  0  0  0  0  0
   -2.6899    1.1561    0.1069 O   0  0  0  0  0  0  0  0  0  0  0  0
   -2.3688   -0.1331   -0.2190 C   0  0  0  0  0  0  0  0  0  0  0  0
   -1.2297   -0.7941    0.0604 C   0  0  0  0  0  0  0  0  0  0  0  0
   -0.9159   -1.9897   -0.1822 O   0  5  0  0  0  0  0  0  0  0  0  0
    3.4641    2.0000    0.0000 C   0  0  0  0  0  0  0  0  0  0  0  0
    4.3301    1.5000    0.0000 C   0  0  0  0  0  0  0  0  0  0  0  0
    3.4641    3.0000    0.0000 C   0  0  0  0  0  0  0  0  0  0  0  0
    1.4968    1.6847    0.6184 H   0  0  0  0  0  0  0  0  0  0  0  0
    0.1395    1.6901    1.9693 H   0  0  0  0  0  0  0  0  0  0  0  0
   -1.2273    2.5796   -0.0807 H   0  0  0  0  0  0  0  0  0  0  0  0
   -2.0925    2.5875    1.4460 H   0  0  0  0  0  0  0  0  0  0  0  0
   -3.1983   -0.6143   -0.7211 H   0  0  0  0  0  0  0  0  0  0  0  0
    3.5147    1.9886   -1.1169 H   0  0  0  0  0  0  0  0  0  0  0  0
    4.1750    0.8675    0.9147 H   0  0  0  0  0  0  0  0  0  0  0  0
    5.1750    2.2197    0.2985 H   0  0  0  0  0  0  0  0  0  0  0  0
    5.2567    0.9650    0.0000 H   0  0  0  0  0  0  0  0  0  0  0  0
    3.7490    3.2210    1.0799 H   0  0  0  0  0  0  0  0  0  0  0  0
    2.3798    3.2845    0.0277 H   0  0  0  0  0  0  0  0  0  0  0  0
    3.4641    4.0700    0.0000 H   0  0  0  0  0  0  0  0  0  0  0  0
  1  2  3  0  0  0  0
  3  2  1  0  0  0  0
  3  4  1  0  0  0  0
  3 14  1  0  0  0  0
  3 17  1  1  0  0  0
  4  5  2  0  0  0  0
  4  6  1  0  0  0  0
  6  7  1  0  0  0  0
  7 12  1  0  0  0  0
  7  8  2  0  0  0  0
  8  9  1  0  0  0  0
  8 18  1  0  0  0  0
  9 10  1  0  0  0  0
  9 19  1  0  0  0  0
  9 20  1  0  0  0  0
 10 11  1  0  0  0  0
 11 12  2  0  0  0  0
 11 21  1  0  0  0  0
 12 13  1  0  0  0  0
 14 15  1  0  0  0  0
 14 16  1  0  0  0  0
 14 22  1  0  0  0  0
 15 23  1  0  0  0  0
 15 24  1  0  0  0  0
 15 25  1  0  0  0  0
 16 26  1  0  0  0  0
 16 27  1  0  0  0  0
 16 28  1  0  0  0  0
M  CHG  3   1  -1   2   1  13  -1
M  END
$$$$
