
 OpenBabel03202621312D

 26 25  0  0  0  0  0  0  0  0999 V2000
    6.0622    0.5000    0.0000 C   0  0  0  0  0  0  0  0  0  0  0  0
    6.0622    1.5000    0.0000 C   0  0  0  0  0  0  0  0  0  0  0  0
    5.3601    2.0306    1.1635 O   0  0  0  0  0  0  0  0  0  0  0  0
    3.9408    2.1387    1.0198 C   0  0  0  0  0  0  0  0  0  0  0  0
    3.5784    3.4086    0.2577 C   0  0  0  0  0  0  0  0  0  0  0  0
    2.5182    3.1619   -0.8072 C   0  0  0  0  0  0  0  0  0  0  0  0
    1.1811    3.1767   -0.2566 N   0  0  0  0  0  0  0  0  0  0  0  0
    0.3385    2.1724    0.0991 C   0  0  0  0  0  0  0  0  0  0  0  0
   -0.7969    2.4660    0.4662 O   0  0  0  0  0  0  0  0  0  0  0  0
    0.8660    0.5000    0.0000 S   0  0  0  0  0  0  0  0  0  0  0  0
    0.0000    0.0000    0.0000 C   0  0  0  0  0  0  0  0  0  0  0  0
    5.0786    0.3025   -0.4899 H   0  0  0  0  0  0  0  0  0  0  0  0
    6.8353    0.3214   -0.7890 H   0  0  0  0  0  0  0  0  0  0  0  0
    6.0622   -0.5700    0.0000 H   0  0  0  0  0  0  0  0  0  0  0  0
    7.0522    1.9591    0.1622 H   0  0  0  0  0  0  0  0  0  0  0  0
    5.7153    2.0767   -0.8757 H   0  0  0  0  0  0  0  0  0  0  0  0
    3.5470    1.2328    0.5582 H   0  0  0  0  0  0  0  0  0  0  0  0
    3.5165    2.1845    2.0285 H   0  0  0  0  0  0  0  0  0  0  0  0
    4.4661    3.8369   -0.2206 H   0  0  0  0  0  0  0  0  0  0  0  0
    3.2277    4.1654    0.9718 H   0  0  0  0  0  0  0  0  0  0  0  0
    2.7020    2.2431   -1.3712 H   0  0  0  0  0  0  0  0  0  0  0  0
    2.5435    3.9926   -1.5214 H   0  0  0  0  0  0  0  0  0  0  0  0
    0.7401    4.0785   -0.1534 H   0  0  0  0  0  0  0  0  0  0  0  0
   -0.1098   -0.1732    1.0910 H   0  0  0  0  0  0  0  0  0  0  0  0
    0.3511   -0.9491   -0.4485 H   0  0  0  0  0  0  0  0  0  0  0  0
   -0.9266   -0.5350    0.0000 H   0  0  0  0  0  0  0  0  0  0  0  0
  1  2  1  0  0  0  0
  1 12  1  0  0  0  0
  1 13  1  0  0  0  0
  1 14  1  0  0  0  0
  2  3  1  0  0  0  0
  2 15  1  0  0  0  0
  2 16  1  0  0  0  0
  3  4  1  0  0  0  0
  4  5  1  0  0  0  0
  4 17  1  0  0  0  0
  4 18  1  0  0  0  0
  5  6  1  0  0  0  0
  5 19  1  0  0  0  0
  5 20  1  0  0  0  0
  6  7  1  0  0  0  0
  6 21  1  0  0  0  0
  6 22  1  0  0  0  0
  7  8  1  0  0  0  0
  7 23  1  0  0  0  0
  8  9  2  0  0  0  0
  8 10  1  0  0  0  0
 10 11  1  0  0  0  0
 11 24  1  0  0  0  0
 11 25  1  0  0  0  0
 11 26  1  0  0  0  0
M  END
$$$$
