
 OpenBabel03202621312D

 36 37  0  0  0  0  0  0  0  0999 V2000
    2.0878   -1.6750    0.0000 C   0  0  0  0  0  0  0  0  0  0  0  0
    1.5878   -0.8090    0.0000 C   0  0  0  0  0  0  0  0  0  0  0  0
    0.3180   -1.1878   -0.3297 N   0  0  0  0  0  0  0  0  0  0  0  0
   -0.5343   -2.1390    0.0603 N   0  0  0  0  0  0  0  0  0  0  0  0
   -1.6812   -1.4475    0.0687 C   0  0  0  0  0  0  0  0  0  0  0  0
   -1.4079   -0.0645   -0.0439 C   0  0  0  0  0  0  0  0  0  0  0  0
   -2.1910    1.2657   -0.0990 C   0  0  0  0  0  0  0  0  0  0  0  0
   -3.3471    1.3445   -1.0051 N   0  0  0  0  0  0  0  0  0  0  0  0
   -4.1132    0.2120   -1.1500 C   0  0  0  0  0  0  0  0  0  0  0  0
   -4.8233    0.4146    0.0141 C   0  0  0  0  0  0  0  0  0  0  0  0
   -5.0208   -0.5907    0.9483 N   0  0  0  0  0  0  0  0  0  0  0  0
   -6.1797   -1.2182    0.7368 C   0  0  0  0  0  0  0  0  0  0  0  0
   -7.6769   -0.4145    0.9941 S   0  0  0  0  0  0  0  0  0  0  0  0
   -5.8761   -2.9427    0.0000 S   0  0  0  0  0  0  0  0  0  0  0  0
   -6.8761   -2.9427    0.0000 C   0  0  0  0  0  0  0  0  0  0  0  0
   -5.0940    1.7977    0.0384 C   0  0  0  0  0  0  0  0  0  0  0  0
   -4.2010    2.3957   -0.7812 N   0  0  0  0  0  0  0  0  0  0  0  0
    0.0000    0.0000    0.0000 C   0  0  0  0  0  0  0  0  0  0  0  0
    0.3090    0.9511    0.0000 C   0  0  0  0  0  0  0  0  0  0  0  0
    1.8388   -2.0973    1.0226 H   0  0  0  0  0  0  0  0  0  0  0  0
    3.1525   -1.3103    0.0831 H   0  0  0  0  0  0  0  0  0  0  0  0
    2.6228   -2.6016    0.0000 H   0  0  0  0  0  0  0  0  0  0  0  0
    2.0413   -0.2187   -0.8375 H   0  0  0  0  0  0  0  0  0  0  0  0
    1.8181   -0.2957    0.9759 H   0  0  0  0  0  0  0  0  0  0  0  0
   -2.5984   -2.0008    0.1696 H   0  0  0  0  0  0  0  0  0  0  0  0
   -1.5799    2.0989   -0.4731 H   0  0  0  0  0  0  0  0  0  0  0  0
   -2.5019    1.5355    0.9182 H   0  0  0  0  0  0  0  0  0  0  0  0
   -3.7202   -0.6756   -1.6247 H   0  0  0  0  0  0  0  0  0  0  0  0
   -4.3068   -1.3113    0.8543 H   0  0  0  0  0  0  0  0  0  0  0  0
   -7.0480   -2.9298   -1.0976 H   0  0  0  0  0  0  0  0  0  0  0  0
   -7.0465   -3.9835    0.3406 H   0  0  0  0  0  0  0  0  0  0  0  0
   -7.9461   -2.9427    0.0000 H   0  0  0  0  0  0  0  0  0  0  0  0
   -5.7395    2.3985    0.6686 H   0  0  0  0  0  0  0  0  0  0  0  0
    0.8010    1.1124   -0.9852 H   0  0  0  0  0  0  0  0  0  0  0  0
    0.7103    1.1221    1.0218 H   0  0  0  0  0  0  0  0  0  0  0  0
    0.6396    1.9687    0.0000 H   0  0  0  0  0  0  0  0  0  0  0  0
  1  2  1  0  0  0  0
  1 20  1  0  0  0  0
  1 21  1  0  0  0  0
  1 22  1  0  0  0  0
  2  3  1  0  0  0  0
  2 23  1  0  0  0  0
  2 24  1  0  0  0  0
  3 18  1  0  0  0  0
  3  4  1  0  0  0  0
  4  5  2  0  0  0  0
  5  6  1  0  0  0  0
  5 25  1  0  0  0  0
  6  7  1  0  0  0  0
  6 18  2  0  0  0  0
  7  8  1  0  0  0  0
  7 26  1  0  0  0  0
  7 27  1  0  0  0  0
  8 17  1  0  0  0  0
  8  9  1  0  0  0  0
  9 10  2  0  0  0  0
  9 28  1  0  0  0  0
 10 11  1  0  0  0  0
 10 16  1  0  0  0  0
 11 12  1  0  0  0  0
 11 29  1  0  0  0  0
 12 13  2  0  0  0  0
 12 14  1  0  0  0  0
 14 15  1  0  0  0  0
 15 30  1  0  0  0  0
 15 31  1  0  0  0  0
 15 32  1  0  0  0  0
 16 17  2  0  0  0  0
 16 33  1  0  0  0  0
 18 19  1  0  0  0  0
 19 34  1  0  0  0  0
 19 35  1  0  0  0  0
 19 36  1  0  0  0  0
M  END
$$$$
