
 OpenBabel03202621392D

 55 56  0  0  1  0  0  0  0  0999 V2000
    0.8398   -2.4242    0.0000 C   0  0  0  0  0  0  0  0  0  0  0  0
    0.8398   -1.4545    0.0000 N   0  0  0  0  0  0  0  0  0  0  0  0
   -0.3298   -0.6170   -0.0365 C   0  0  0  0  0  0  0  0  0  0  0  0
   -1.5125   -0.7453    0.7195 C   0  0  0  0  0  0  0  0  0  0  0  0
   -2.7724   -0.1487    0.2981 C   0  0  0  0  0  0  0  0  0  0  0  0
   -4.0578   -1.1495    0.3192 C   0  0  3  0  0  0  0  0  0  0  0  0
   -3.8112   -1.7781    1.6049 O   0  0  0  0  0  0  0  0  0  0  0  0
   -5.7001   -1.1232    0.3215 C   0  0  2  0  0  0  0  0  0  0  0  0
   -6.1679   -2.6627    0.1894 C   0  0  0  0  0  0  0  0  0  0  0  0
   -7.5794   -3.2167    0.0326 C   0  0  0  0  0  0  0  0  0  0  0  0
   -7.4397   -4.6596    0.0207 O   0  0  0  0  0  0  0  0  0  0  0  0
   -6.4646   -0.3067   -0.7246 C   0  0  0  0  0  0  0  0  0  0  0  0
   -6.9855   -0.8976   -1.6608 O   0  0  0  0  0  0  0  0  0  0  0  0
   -6.6244    1.2069   -0.5347 C   0  0  0  0  0  0  0  0  0  0  0  0
   -5.7972    1.8291    0.4223 C   0  0  0  0  0  0  0  0  0  0  0  0
   -5.8210    3.2051    0.6253 C   0  0  0  0  0  0  0  0  0  0  0  0
   -6.6974    3.9746   -0.1109 C   0  0  0  0  0  0  0  0  0  0  0  0
   -7.5446    3.3677   -1.0300 C   0  0  0  0  0  0  0  0  0  0  0  0
   -7.5728    1.9727   -1.2916 C   0  0  0  0  0  0  0  0  0  0  0  0
   -8.4124    1.5319   -2.1340 O   0  5  0  0  0  0  0  0  0  0  0  0
   -3.6403   -1.9676   -0.9419 C   0  0  1  0  0  0  0  0  0  0  0  0
   -4.3637   -1.7997   -2.1532 O   0  0  0  0  0  0  0  0  0  0  0  0
   -3.3160   -3.4074   -0.6499 C   0  0  0  0  0  0  0  0  0  0  0  0
   -3.9423   -4.2357   -0.0033 O   0  0  0  0  0  0  0  0  0  0  0  0
   -2.0014   -3.7772   -1.1917 C   0  0  0  0  0  0  0  0  0  0  0  0
   -1.0648   -3.9739    0.0000 C   0  0  0  0  0  0  0  0  0  0  0  0
   -0.5800   -4.8137    0.0000 C   0  0  0  0  0  0  0  0  0  0  0  0
   -1.2027   -3.3793    1.0692 O   0  0  0  0  0  0  0  0  0  0  0  0
   -2.7158    0.8028   -0.6465 N   0  0  0  0  0  0  0  0  0  0  0  0
   -1.4825    1.0408   -1.1681 C   0  0  0  0  0  0  0  0  0  0  0  0
   -0.3178    0.3576   -0.9557 N   0  0  0  0  0  0  0  0  0  0  0  0
    1.7200   -2.5983    0.6539 H   0  0  0  0  0  0  0  0  0  0  0  0
    1.1447   -2.6262   -1.0548 H   0  0  0  0  0  0  0  0  0  0  0  0
    0.8398   -3.4942    0.0000 H   0  0  0  0  0  0  0  0  0  0  0  0
    1.4918   -0.9035   -0.5651 H   0  0  0  0  0  0  0  0  0  0  0  0
   -1.5303   -1.4203    1.5656 H   0  0  0  0  0  0  0  0  0  0  0  0
   -4.2463   -1.2427    2.2949 H   0  0  0  0  0  0  0  0  0  0  0  0
   -6.0712   -0.8173    1.3068 H   0  0  0  0  0  0  0  0  0  0  0  0
   -5.7265   -3.0572   -0.7248 H   0  0  0  0  0  0  0  0  0  0  0  0
   -5.7328   -3.2033    1.0371 H   0  0  0  0  0  0  0  0  0  0  0  0
   -8.0411   -2.9451   -0.9210 H   0  0  0  0  0  0  0  0  0  0  0  0
   -8.2292   -2.9717    0.8691 H   0  0  0  0  0  0  0  0  0  0  0  0
   -8.2091   -5.0272   -0.4413 H   0  0  0  0  0  0  0  0  0  0  0  0
   -5.1049    1.2657    1.0306 H   0  0  0  0  0  0  0  0  0  0  0  0
   -5.1598    3.6697    1.3495 H   0  0  0  0  0  0  0  0  0  0  0  0
   -6.7404    5.0603    0.0252 H   0  0  0  0  0  0  0  0  0  0  0  0
   -8.2458    3.9949   -1.5878 H   0  0  0  0  0  0  0  0  0  0  0  0
   -2.6707   -1.5979   -1.3004 H   0  0  0  0  0  0  0  0  0  0  0  0
   -4.3875   -0.8459   -2.3635 H   0  0  0  0  0  0  0  0  0  0  0  0
   -1.5852   -3.1072   -1.9394 H   0  0  0  0  0  0  0  0  0  0  0  0
   -2.2055   -4.7328   -1.7176 H   0  0  0  0  0  0  0  0  0  0  0  0
   -1.4379   -5.5032    0.2000 H   0  0  0  0  0  0  0  0  0  0  0  0
   -0.2064   -4.8424   -1.0544 H   0  0  0  0  0  0  0  0  0  0  0  0
   -0.0450   -5.7404    0.0000 H   0  0  0  0  0  0  0  0  0  0  0  0
   -1.4228    1.8461   -1.8961 H   0  0  0  0  0  0  0  0  0  0  0  0
  1  2  1  0  0  0  0
  1 32  1  0  0  0  0
  1 33  1  0  0  0  0
  1 34  1  0  0  0  0
  2  3  1  0  0  0  0
  2 35  1  0  0  0  0
  3 31  2  0  0  0  0
  3  4  1  0  0  0  0
  4  5  2  0  0  0  0
  4 36  1  0  0  0  0
  5  6  1  0  0  0  0
  5 29  1  0  0  0  0
  6  7  1  0  0  0  0
  6  8  1  0  0  0  0
  6 21  1  0  0  0  0
  7 37  1  0  0  0  0
  8  9  1  0  0  0  0
  8 12  1  0  0  0  0
  8 38  1  1  0  0  0
  9 10  1  0  0  0  0
  9 39  1  0  0  0  0
  9 40  1  0  0  0  0
 10 11  1  0  0  0  0
 10 41  1  0  0  0  0
 10 42  1  0  0  0  0
 11 43  1  0  0  0  0
 12 13  2  0  0  0  0
 12 14  1  0  0  0  0
 14 19  2  0  0  0  0
 14 15  1  0  0  0  0
 15 16  2  0  0  0  0
 15 44  1  0  0  0  0
 16 17  1  0  0  0  0
 16 45  1  0  0  0  0
 17 18  2  0  0  0  0
 17 46  1  0  0  0  0
 18 19  1  0  0  0  0
 18 47  1  0  0  0  0
 19 20  1  0  0  0  0
 21 22  1  0  0  0  0
 21 23  1  0  0  0  0
 21 48  1  1  0  0  0
 22 49  1  0  0  0  0
 23 24  2  0  0  0  0
 23 25  1  0  0  0  0
 25 26  1  0  0  0  0
 25 50  1  0  0  0  0
 25 51  1  0  0  0  0
 26 27  1  0  0  0  0
 26 28  2  0  0  0  0
 27 52  1  0  0  0  0
 27 53  1  0  0  0  0
 27 54  1  0  0  0  0
 29 30  2  0  0  0  0
 30 31  1  0  0  0  0
 30 55  1  0  0  0  0
M  CHG  1  20  -1
M  END
$$$$
