
 OpenBabel03202621302D

 21 21  0  0  0  0  0  0  0  0999 V2000
    3.9895   -2.2862    0.0000 C   0  0  0  0  0  0  0  0  0  0  0  0
    4.1974   -1.3080    0.0000 S   0  0  0  0  0  0  0  0  0  0  0  0
    2.8534   -0.2298    0.2488 C   0  0  0  0  0  0  0  0  0  0  0  0
    3.0480    0.9632    0.4442 O   0  0  0  0  0  0  0  0  0  0  0  0
    1.4777   -0.8411    0.2209 C   0  0  0  0  0  0  0  0  0  0  0  0
    0.4143    0.2341    0.0400 C   0  0  0  0  0  0  0  0  0  0  0  0
   -0.9414   -0.2762   -0.0393 N   0  0  0  0  0  0  0  0  0  0  0  0
   -1.3487   -1.5650   -0.2314 C   0  0  0  0  0  0  0  0  0  0  0  0
   -2.7236   -1.5078   -0.2331 C   0  0  0  0  0  0  0  0  0  0  0  0
   -3.1568   -0.2215   -0.0555 N   0  0  0  0  0  0  0  0  0  0  0  0
   -2.0642    0.4995    0.0537 C   0  0  0  0  0  0  0  0  0  0  0  0
    3.7418   -2.4178   -1.0725 H   0  0  0  0  0  0  0  0  0  0  0  0
    5.0120   -2.6785    0.1582 H   0  0  0  0  0  0  0  0  0  0  0  0
    3.7671   -3.3328    0.0000 H   0  0  0  0  0  0  0  0  0  0  0  0
    1.3189   -1.3868    1.1578 H   0  0  0  0  0  0  0  0  0  0  0  0
    1.4232   -1.5474   -0.6151 H   0  0  0  0  0  0  0  0  0  0  0  0
    0.5889    0.8011   -0.8834 H   0  0  0  0  0  0  0  0  0  0  0  0
    0.4393    0.9420    0.8782 H   0  0  0  0  0  0  0  0  0  0  0  0
   -0.6777   -2.4022   -0.3482 H   0  0  0  0  0  0  0  0  0  0  0  0
   -3.4218   -2.3268   -0.3549 H   0  0  0  0  0  0  0  0  0  0  0  0
   -2.0301    1.5719    0.1985 H   0  0  0  0  0  0  0  0  0  0  0  0
  1  2  1  0  0  0  0
  1 12  1  0  0  0  0
  1 13  1  0  0  0  0
  1 14  1  0  0  0  0
  2  3  1  0  0  0  0
  3  4  2  0  0  0  0
  3  5  1  0  0  0  0
  5  6  1  0  0  0  0
  5 15  1  0  0  0  0
  5 16  1  0  0  0  0
  6  7  1  0  0  0  0
  6 17  1  0  0  0  0
  6 18  1  0  0  0  0
  7 11  1  0  0  0  0
  7  8  1  0  0  0  0
  8  9  2  0  0  0  0
  8 19  1  0  0  0  0
  9 10  1  0  0  0  0
  9 20  1  0  0  0  0
 10 11  2  0  0  0  0
 11 21  1  0  0  0  0
M  END
$$$$
