
 OpenBabel03202621342D

 24 24  0  0  1  0  0  0  0  0999 V2000
    2.5981   -1.5000    0.0000 C   0  0  0  0  0  0  0  0  0  0  0  0
    2.5981   -0.5000    0.0000 S   0  0  0  0  0  0  0  0  0  0  0  0
    0.8857    0.0556   -0.3368 C   0  0  0  0  0  0  0  0  0  0  0  0
   -0.3026   -0.6991    0.2944 C   0  0  1  0  0  0  0  0  0  0  0  0
   -0.5580   -2.0568   -0.3843 C   0  0  0  0  0  0  0  0  0  0  0  0
   -1.8305   -2.7375    0.1220 C   0  0  0  0  0  0  0  0  0  0  0  0
   -3.0577   -1.8525   -0.0235 C   0  0  0  0  0  0  0  0  0  0  0  0
   -2.7998   -0.5133    0.6204 C   0  0  0  0  0  0  0  0  0  0  0  0
   -3.6177    0.0171    1.3670 O   0  0  0  0  0  0  0  0  0  0  0  0
   -1.5449    0.2023    0.1796 C   0  0  0  0  0  0  0  0  0  0  0  0
    2.7236   -1.6804   -1.0868 H   0  0  0  0  0  0  0  0  0  0  0  0
    3.5803   -1.6708    0.4801 H   0  0  0  0  0  0  0  0  0  0  0  0
    2.5981   -2.5700    0.0000 H   0  0  0  0  0  0  0  0  0  0  0  0
    0.7590    0.1130   -1.4257 H   0  0  0  0  0  0  0  0  0  0  0  0
    0.8681    1.0923    0.0206 H   0  0  0  0  0  0  0  0  0  0  0  0
   -0.1060   -0.8690    1.3624 H   0  0  0  0  0  0  0  0  0  0  0  0
   -0.6268   -1.9226   -1.4721 H   0  0  0  0  0  0  0  0  0  0  0  0
    0.2769   -2.7396   -0.2010 H   0  0  0  0  0  0  0  0  0  0  0  0
   -1.6973   -3.0062    1.1751 H   0  0  0  0  0  0  0  0  0  0  0  0
   -1.9875   -3.6709   -0.4307 H   0  0  0  0  0  0  0  0  0  0  0  0
   -3.9202   -2.3250    0.4579 H   0  0  0  0  0  0  0  0  0  0  0  0
   -3.3025   -1.6850   -1.0778 H   0  0  0  0  0  0  0  0  0  0  0  0
   -1.4198    1.0995    0.7978 H   0  0  0  0  0  0  0  0  0  0  0  0
   -1.7003    0.5292   -0.8562 H   0  0  0  0  0  0  0  0  0  0  0  0
  1  2  1  0  0  0  0
  1 11  1  0  0  0  0
  1 12  1  0  0  0  0
  1 13  1  0  0  0  0
  2  3  1  0  0  0  0
  3 14  1  0  0  0  0
  3 15  1  0  0  0  0
  4  3  1  0  0  0  0
  4  5  1  0  0  0  0
  4 10  1  0  0  0  0
  4 16  1  6  0  0  0
  5  6  1  0  0  0  0
  5 17  1  0  0  0  0
  5 18  1  0  0  0  0
  6  7  1  0  0  0  0
  6 19  1  0  0  0  0
  6 20  1  0  0  0  0
  7  8  1  0  0  0  0
  7 21  1  0  0  0  0
  7 22  1  0  0  0  0
  8  9  2  0  0  0  0
  8 10  1  0  0  0  0
 10 23  1  0  0  0  0
 10 24  1  0  0  0  0
M  END
$$$$
