
 OpenBabel03202621282D

 20 21  0  0  1  0  0  0  0  0999 V2000
   -4.5714   -0.4954    0.0000 C   0  0  0  0  0  0  0  0  0  0  0  0
   -4.1646   -1.4090    0.0000 S   0  0  0  0  0  0  0  0  0  0  0  0
   -3.1701   -1.5135    0.0000 C   0  0  1  0  0  0  0  0  0  0  0  0
   -2.7634   -2.4271    0.0000 C   0  0  0  0  0  0  0  0  0  0  0  0
   -1.7688   -2.5316    0.0000 O   0  0  0  0  0  0  0  0  0  0  0  0
   -2.5823   -0.7045    0.0000 C   0  0  0  0  0  0  0  0  0  0  0  0
   -1.5878   -0.8090    0.0000 C   0  0  0  0  0  0  0  0  0  0  0  0
   -1.0000    0.0000    0.0000 N   0  0  0  0  0  0  0  0  0  0  0  0
   -1.3090    0.9511    0.0000 C   0  0  0  0  0  0  0  0  0  0  0  0
   -0.5000    1.5388    0.0000 C   0  0  0  0  0  0  0  0  0  0  0  0
   -0.5000    2.5388    0.0000 C   0  0  0  0  0  0  0  0  0  0  0  0
    0.3660    3.0388    0.0000 O   0  0  0  0  0  0  0  0  0  0  0  0
    1.2321    2.5388    0.0000 C   0  0  0  0  0  0  0  0  0  0  0  0
    2.0981    3.0388    0.0000 C   0  0  0  0  0  0  0  0  0  0  0  0
    2.9641    2.5388    0.0000 C   0  0  0  0  0  0  0  0  0  0  0  0
    2.9641    1.5388    0.0000 C   0  0  0  0  0  0  0  0  0  0  0  0
    2.0981    1.0388    0.0000 C   0  0  0  0  0  0  0  0  0  0  0  0
    1.2321    1.5388    0.0000 C   0  0  0  0  0  0  0  0  0  0  0  0
    0.3090    0.9511    0.0000 N   0  0  0  0  0  0  0  0  0  0  0  0
    0.0000   -0.0000    0.0000 N   0  0  0  0  0  0  0  0  0  0  0  0
  1  2  1  0  0  0  0
  2  3  1  0  0  0  0
  3  4  1  6  0  0  0
  3  6  1  0  0  0  0
  4  5  1  0  0  0  0
  6  7  1  0  0  0  0
  7  8  1  0  0  0  0
  8 20  1  0  0  0  0
  8  9  1  0  0  0  0
  9 10  2  0  0  0  0
 10 11  1  0  0  0  0
 10 19  1  0  0  0  0
 11 12  1  0  0  0  0
 12 13  1  0  0  0  0
 13 18  2  0  0  0  0
 13 14  1  0  0  0  0
 14 15  2  0  0  0  0
 15 16  1  0  0  0  0
 16 17  2  0  0  0  0
 17 18  1  0  0  0  0
 19 20  2  0  0  0  0
M  END
$$$$
