
 OpenBabel03202621332D

 28 28  0  0  0  0  0  0  0  0999 V2000
   -3.4641    1.0000    0.0000 C   0  0  0  0  0  0  0  0  0  0  0  0
   -3.4641    0.0000    0.0000 S   0  0  0  0  0  0  0  0  0  0  0  0
   -3.1695   -1.4325    0.0000 C   0  0  0  0  0  0  0  0  0  0  0  0
   -3.6928   -2.5059   -0.0000 O   0  0  0  0  0  0  0  0  0  0  0  0
   -1.9920   -0.4847    0.0000 N   0  0  0  0  0  0  0  0  0  0  0  0
   -0.7127   -0.4196   -0.0000 C   0  0  0  0  0  0  0  0  0  0  0  0
   -1.0702   -1.6308   -0.0000 C   0  0  0  0  0  0  0  0  0  0  0  0
    0.0000   -2.0000    0.0000 C   0  0  0  0  0  0  0  0  0  0  0  0
    0.0000   -3.0000    0.0000 C   0  0  0  0  0  0  0  0  0  0  0  0
    1.4956   -1.3615   -0.0000 C   0  0  0  0  0  0  0  0  0  0  0  0
    2.8343   -2.0608    0.0000 C   0  0  0  0  0  0  0  0  0  0  0  0
    1.6052   -0.0191   -0.0000 C   0  0  0  0  0  0  0  0  0  0  0  0
    0.3893    0.5331   -0.0000 C   0  0  0  0  0  0  0  0  0  0  0  0
    0.3314    1.9860    0.0000 N   0  3  0  0  0  0  0  0  0  0  0  0
   -0.7636    2.5366    0.0000 O   0  0  0  0  0  0  0  0  0  0  0  0
    1.4096    2.6053    0.0000 O   0  5  0  0  0  0  0  0  0  0  0  0
   -2.5941    1.6658   -0.0000 H   0  0  0  0  0  0  0  0  0  0  0  0
   -4.5300    1.2726   -0.0000 H   0  0  0  0  0  0  0  0  0  0  0  0
   -3.4641    2.0700    0.0000 H   0  0  0  0  0  0  0  0  0  0  0  0
   -1.8960    0.4773    0.0000 H   0  0  0  0  0  0  0  0  0  0  0  0
   -1.7819   -2.4221   -0.0000 H   0  0  0  0  0  0  0  0  0  0  0  0
   -0.9354   -3.6408    0.0000 H   0  0  0  0  0  0  0  0  0  0  0  0
    0.9755   -3.4371    0.0000 H   0  0  0  0  0  0  0  0  0  0  0  0
    0.0000   -4.0700    0.0000 H   0  0  0  0  0  0  0  0  0  0  0  0
    2.5234   -3.0912   -0.0000 H   0  0  0  0  0  0  0  0  0  0  0  0
    3.6348   -1.3290   -0.0000 H   0  0  0  0  0  0  0  0  0  0  0  0
    3.6649   -2.7937   -0.0000 H   0  0  0  0  0  0  0  0  0  0  0  0
    2.5454    0.5159    0.0000 H   0  0  0  0  0  0  0  0  0  0  0  0
  1  2  1  0  0  0  0
  1 17  1  0  0  0  0
  1 18  1  0  0  0  0
  1 19  1  0  0  0  0
  2  3  1  0  0  0  0
  3  4  2  0  0  0  0
  3  5  1  0  0  0  0
  5  6  1  0  0  0  0
  5 20  1  0  0  0  0
  6 13  2  0  0  0  0
  6  7  1  0  0  0  0
  7  8  2  0  0  0  0
  7 21  1  0  0  0  0
  8  9  1  0  0  0  0
  8 10  1  0  0  0  0
  9 22  1  0  0  0  0
  9 23  1  0  0  0  0
  9 24  1  0  0  0  0
 10 11  1  0  0  0  0
 10 12  2  0  0  0  0
 11 25  1  0  0  0  0
 11 26  1  0  0  0  0
 11 27  1  0  0  0  0
 12 13  1  0  0  0  0
 12 28  1  0  0  0  0
 13 14  1  0  0  0  0
 14 15  2  0  0  0  0
 14 16  1  0  0  0  0
M  CHG  2  14   1  16  -1
M  END
$$$$
