
 OpenBabel03202621352D

 30 31  0  0  0  0  0  0  0  0999 V2000
    2.5981    2.5000    0.0000 C   0  0  0  0  0  0  0  0  0  0  0  0
    2.5981    1.5000    0.0000 S   0  0  0  0  0  0  0  0  0  0  0  0
    1.7518    1.0538   -1.4472 C   0  0  0  0  0  0  0  0  0  0  0  0
    1.1499    1.7585   -2.2489 O   0  0  0  0  0  0  0  0  0  0  0  0
    1.9699   -0.3125   -1.5238 N   0  0  0  0  0  0  0  0  0  0  0  0
    1.4280   -1.0014   -0.3948 C   0  0  0  0  0  0  0  0  0  0  0  0
    1.8308   -2.3244   -0.0953 C   0  0  0  0  0  0  0  0  0  0  0  0
    0.8827   -3.1548    0.4582 C   0  0  0  0  0  0  0  0  0  0  0  0
   -0.3787   -2.6285    0.4855 C   0  0  0  0  0  0  0  0  0  0  0  0
   -1.6000   -3.3457    0.7545 C   0  0  0  0  0  0  0  0  0  0  0  0
   -2.1008   -4.3261   -0.1078 C   0  0  0  0  0  0  0  0  0  0  0  0
   -3.0386   -3.5737   -0.7840 C   0  0  0  0  0  0  0  0  0  0  0  0
   -3.3147   -2.3364    0.0000 N   0  0  0  0  0  0  0  0  0  0  0  0
   -4.3092   -2.2319    0.0000 C   0  0  0  0  0  0  0  0  0  0  0  0
   -2.6178   -2.5616    1.1728 N   0  0  0  0  0  0  0  0  0  0  0  0
   -0.6784   -1.3145    0.1435 C   0  0  0  0  0  0  0  0  0  0  0  0
    0.3062   -0.4355    0.1312 C   0  0  0  0  0  0  0  0  0  0  0  0
    3.6411    2.6722    0.3279 H   0  0  0  0  0  0  0  0  0  0  0  0
    1.9332    2.6747    0.8683 H   0  0  0  0  0  0  0  0  0  0  0  0
    2.5981    3.5700    0.0000 H   0  0  0  0  0  0  0  0  0  0  0  0
    2.9235   -0.6135   -1.7056 H   0  0  0  0  0  0  0  0  0  0  0  0
    2.8548   -2.6503   -0.2880 H   0  0  0  0  0  0  0  0  0  0  0  0
    1.0951   -4.1727    0.6692 H   0  0  0  0  0  0  0  0  0  0  0  0
   -1.6575   -5.2452   -0.4620 H   0  0  0  0  0  0  0  0  0  0  0  0
   -3.7203   -3.8498   -1.5849 H   0  0  0  0  0  0  0  0  0  0  0  0
   -4.4196   -1.1287    0.1030 H   0  0  0  0  0  0  0  0  0  0  0  0
   -4.6840   -2.7262    0.9372 H   0  0  0  0  0  0  0  0  0  0  0  0
   -5.3733   -2.1201    0.0000 H   0  0  0  0  0  0  0  0  0  0  0  0
   -1.6367   -0.8826   -0.0751 H   0  0  0  0  0  0  0  0  0  0  0  0
    0.0078    0.5894    0.0756 H   0  0  0  0  0  0  0  0  0  0  0  0
  1  2  1  0  0  0  0
  1 18  1  0  0  0  0
  1 19  1  0  0  0  0
  1 20  1  0  0  0  0
  2  3  1  0  0  0  0
  3  4  2  0  0  0  0
  3  5  1  0  0  0  0
  5  6  1  0  0  0  0
  5 21  1  0  0  0  0
  6 17  2  0  0  0  0
  6  7  1  0  0  0  0
  7  8  2  0  0  0  0
  7 22  1  0  0  0  0
  8  9  1  0  0  0  0
  8 23  1  0  0  0  0
  9 10  1  0  0  0  0
  9 16  2  0  0  0  0
 10 15  2  0  0  0  0
 10 11  1  0  0  0  0
 11 12  2  0  0  0  0
 11 24  1  0  0  0  0
 12 13  1  0  0  0  0
 12 25  1  0  0  0  0
 13 14  1  0  0  0  0
 13 15  1  0  0  0  0
 14 26  1  0  0  0  0
 14 27  1  0  0  0  0
 14 28  1  0  0  0  0
 16 17  1  0  0  0  0
 16 29  1  0  0  0  0
 17 30  1  0  0  0  0
M  END
$$$$
