
 OpenBabel03202621322D

 29 30  0  0  0  0  0  0  0  0999 V2000
    4.6227    0.3145   -0.2791 N   0  0  0  0  0  0  0  0  0  0  0  0
    4.4529   -1.0639   -0.0724 C   0  0  0  0  0  0  0  0  0  0  0  0
    5.5794   -1.8938   -0.1829 C   0  0  0  0  0  0  0  0  0  0  0  0
    5.4572   -3.2812   -0.1187 C   0  0  0  0  0  0  0  0  0  0  0  0
    4.1984   -3.8461    0.0069 C   0  0  0  0  0  0  0  0  0  0  0  0
    4.0786   -5.1798    0.0594 F   0  0  0  0  0  0  0  0  0  0  0  0
    3.0607   -3.0515    0.0635 C   0  0  0  0  0  0  0  0  0  0  0  0
    3.1682   -1.6502    0.0109 C   0  0  0  0  0  0  0  0  0  0  0  0
    1.9395   -0.7592    0.0487 C   0  0  0  0  0  0  0  0  0  0  0  0
    0.7176   -1.4789    0.2402 O   0  0  0  0  0  0  0  0  0  0  0  0
   -0.4539   -0.7417    0.1076 C   0  0  0  0  0  0  0  0  0  0  0  0
   -1.6046   -1.3907   -0.1223 C   0  0  0  0  0  0  0  0  0  0  0  0
   -2.8527   -0.8542   -0.2788 O   0  0  0  0  0  0  0  0  0  0  0  0
   -2.9875    0.4807    0.2083 C   0  0  0  0  0  0  0  0  0  0  0  0
   -1.8568    1.3815   -0.2312 C   0  0  0  0  0  0  0  0  0  0  0  0
   -0.5389    0.7581    0.1453 C   0  0  0  0  0  0  0  0  0  0  0  0
    0.4307    1.4683    0.4015 O   0  0  0  0  0  0  0  0  0  0  0  0
    5.5482    0.6562   -0.0370 H   0  0  0  0  0  0  0  0  0  0  0  0
    3.8961    0.9069    0.1114 H   0  0  0  0  0  0  0  0  0  0  0  0
    6.5666   -1.4591   -0.3178 H   0  0  0  0  0  0  0  0  0  0  0  0
    6.3328   -3.9176   -0.1833 H   0  0  0  0  0  0  0  0  0  0  0  0
    2.0923   -3.5390    0.1394 H   0  0  0  0  0  0  0  0  0  0  0  0
    2.0735   -0.0855    0.9010 H   0  0  0  0  0  0  0  0  0  0  0  0
    1.8939   -0.2115   -0.9009 H   0  0  0  0  0  0  0  0  0  0  0  0
   -1.6455   -2.4676   -0.2354 H   0  0  0  0  0  0  0  0  0  0  0  0
   -3.9355    0.8738   -0.1749 H   0  0  0  0  0  0  0  0  0  0  0  0
   -3.0697    0.4483    1.3019 H   0  0  0  0  0  0  0  0  0  0  0  0
   -1.8605    1.5292   -1.3157 H   0  0  0  0  0  0  0  0  0  0  0  0
   -1.9466    2.3531    0.2639 H   0  0  0  0  0  0  0  0  0  0  0  0
  1  2  1  0  0  0  0
  1 18  1  0  0  0  0
  1 19  1  0  0  0  0
  2  8  2  0  0  0  0
  2  3  1  0  0  0  0
  3  4  2  0  0  0  0
  3 20  1  0  0  0  0
  4  5  1  0  0  0  0
  4 21  1  0  0  0  0
  5  6  1  0  0  0  0
  5  7  2  0  0  0  0
  7  8  1  0  0  0  0
  7 22  1  0  0  0  0
  8  9  1  0  0  0  0
  9 10  1  0  0  0  0
  9 23  1  0  0  0  0
  9 24  1  0  0  0  0
 10 11  1  0  0  0  0
 11 16  1  0  0  0  0
 11 12  2  0  0  0  0
 12 13  1  0  0  0  0
 12 25  1  0  0  0  0
 13 14  1  0  0  0  0
 14 15  1  0  0  0  0
 14 26  1  0  0  0  0
 14 27  1  0  0  0  0
 15 16  1  0  0  0  0
 15 28  1  0  0  0  0
 15 29  1  0  0  0  0
 16 17  2  0  0  0  0
M  END
$$$$
