
 OpenBabel03202621392D

 20 20  0  0  0  0  0  0  0  0999 V2000
    3.4641    1.0000    0.0000 C   0  0  0  0  0  0  0  0  0  0  0  0
    2.5981    1.5000    0.0000 S   0  0  0  0  0  0  0  0  0  0  0  0
    0.9674    0.9580    0.1518 C   0  0  0  0  0  0  0  0  0  0  0  0
   -0.1959    2.1440    0.3615 S   0  0  0  0  0  0  0  0  0  0  0  0
    0.8221   -0.4096    0.0741 N   0  0  0  0  0  0  0  0  0  0  0  0
   -0.3267   -1.2439    0.0623 C   0  0  0  0  0  0  0  0  0  0  0  0
   -0.0894   -2.6275    0.0559 C   0  0  0  0  0  0  0  0  0  0  0  0
   -1.1446   -3.5496    0.0371 C   0  0  0  0  0  0  0  0  0  0  0  0
   -2.4611   -3.0956    0.0190 C   0  0  0  0  0  0  0  0  0  0  0  0
   -3.7546   -4.2279   -0.0085 Cl  0  0  0  0  0  0  0  0  0  0  0  0
   -2.7078   -1.7294    0.0177 C   0  0  0  0  0  0  0  0  0  0  0  0
   -3.9658   -1.2622   -0.0086 F   0  0  0  0  0  0  0  0  0  0  0  0
   -1.6552   -0.8105    0.0358 C   0  0  0  0  0  0  0  0  0  0  0  0
    3.4281    0.5747   -1.0224 H   0  0  0  0  0  0  0  0  0  0  0  0
    4.1590    1.8607   -0.0128 H   0  0  0  0  0  0  0  0  0  0  0  0
    4.3907    0.4650    0.0000 H   0  0  0  0  0  0  0  0  0  0  0  0
    1.7053   -0.9023    0.0121 H   0  0  0  0  0  0  0  0  0  0  0  0
    0.9271   -3.0176    0.0706 H   0  0  0  0  0  0  0  0  0  0  0  0
   -0.9334   -4.6146    0.0351 H   0  0  0  0  0  0  0  0  0  0  0  0
   -1.9499    0.2279    0.0123 H   0  0  0  0  0  0  0  0  0  0  0  0
  1  2  1  0  0  0  0
  1 14  1  0  0  0  0
  1 15  1  0  0  0  0
  1 16  1  0  0  0  0
  2  3  1  0  0  0  0
  3  4  2  0  0  0  0
  3  5  1  0  0  0  0
  5  6  1  0  0  0  0
  5 17  1  0  0  0  0
  6 13  2  0  0  0  0
  6  7  1  0  0  0  0
  7  8  2  0  0  0  0
  7 18  1  0  0  0  0
  8  9  1  0  0  0  0
  8 19  1  0  0  0  0
  9 10  1  0  0  0  0
  9 11  2  0  0  0  0
 11 12  1  0  0  0  0
 11 13  1  0  0  0  0
 13 20  1  0  0  0  0
M  END
$$$$
