
 OpenBabel03202621342D

 20 20  0  0  1  0  0  0  0  0999 V2000
    1.3359   -6.3100    0.1218 C   0  0  0  0  0  0  0  0  0  0  0  0
    2.3560   -5.2446   -0.9183 S   0  0  0  0  0  0  0  0  0  0  0  0
    2.4943   -3.8686    0.1541 C   0  0  0  0  0  0  0  0  0  0  0  0
    3.5240   -3.6245    0.7637 O   0  0  0  0  0  0  0  0  0  0  0  0
    1.2642   -3.0418    0.2436 C   0  0  0  0  0  0  0  0  0  0  0  0
    1.2628   -1.9489    1.0185 C   0  0  0  0  0  0  0  0  0  0  0  0
    0.1808   -0.9659    1.1848 C   0  0  2  0  0  0  0  0  0  0  0  0
   -1.0324   -0.8964    0.4195 O   0  0  0  0  0  0  0  0  0  0  0  0
    0.0000    0.0000    0.0000 C   0  0  1  0  0  0  0  0  0  0  0  0
    0.0000    1.0000    0.0000 C   0  0  0  0  0  0  0  0  0  0  0  0
    1.1518   -5.8760    1.1085 H   0  0  0  0  0  0  0  0  0  0  0  0
    1.8316   -7.2747    0.2547 H   0  0  0  0  0  0  0  0  0  0  0  0
    0.3750   -6.4746   -0.3726 H   0  0  0  0  0  0  0  0  0  0  0  0
    0.3960   -3.3211   -0.3404 H   0  0  0  0  0  0  0  0  0  0  0  0
    2.1744   -1.7047    1.5701 H   0  0  0  0  0  0  0  0  0  0  0  0
    0.1101   -0.5741    2.1961 H   0  0  0  0  0  0  0  0  0  0  0  0
    0.4664   -0.3195   -0.9367 H   0  0  0  0  0  0  0  0  0  0  0  0
    1.0187    1.1794    0.4168 H   0  0  0  0  0  0  0  0  0  0  0  0
   -0.7607    1.2234    0.7855 H   0  0  0  0  0  0  0  0  0  0  0  0
    0.0000    2.0700    0.0000 H   0  0  0  0  0  0  0  0  0  0  0  0
  1  2  1  0  0  0  0
  1 11  1  0  0  0  0
  1 12  1  0  0  0  0
  1 13  1  0  0  0  0
  2  3  1  0  0  0  0
  3  4  2  0  0  0  0
  3  5  1  0  0  0  0
  5  6  2  3  0  0  0
  5 14  1  0  0  0  0
  6 15  1  0  0  0  0
  7  6  1  0  0  0  0
  7  8  1  0  0  0  0
  7  9  1  0  0  0  0
  7 16  1  1  0  0  0
  8  9  1  0  0  0  0
  9 10  1  0  0  0  0
  9 17  1  6  0  0  0
 10 18  1  0  0  0  0
 10 19  1  0  0  0  0
 10 20  1  0  0  0  0
M  END
$$$$
