
 OpenBabel03202621402D

 60 61  0  0  1  0  0  0  0  0999 V2000
    2.5981   -7.5000    0.0000 C   0  0  0  0  0  0  0  0  0  0  0  0
    3.4641   -8.0000    0.0000 C   0  0  0  0  0  0  0  0  0  0  0  0
    3.5746   -9.0679    0.6788 O   0  0  0  0  0  0  0  0  0  0  0  0
    4.8429   -7.8687   -0.8741 C   0  0  0  0  0  0  0  0  0  0  0  0
    5.1121   -6.5113   -0.3381 C   0  0  0  0  0  0  0  0  0  0  0  0
    6.1858   -6.1375    0.0973 O   0  0  0  0  0  0  0  0  0  0  0  0
    3.4641   -6.0000    0.0000 C   0  0  2  0  0  0  0  0  0  0  0  0
    3.8935   -5.9945    1.6630 O   0  0  0  0  0  0  0  0  0  0  0  0
    3.4641   -5.0000    0.0000 C   0  0  0  0  0  0  0  0  0  0  0  0
    4.4545   -4.4604   -0.5872 O   0  0  0  0  0  0  0  0  0  0  0  0
    2.5981   -4.5000    0.0000 C   0  0  2  0  0  0  0  0  0  0  0  0
    1.6546   -4.6380    1.5356 C   0  0  0  0  0  0  0  0  0  0  0  0
    0.4858   -5.6705    1.5519 C   0  0  0  0  0  0  0  0  0  0  0  0
   -0.6239   -5.1580    2.2747 O   0  0  0  0  0  0  0  0  0  0  0  0
    2.5981   -3.5000    0.0000 C   0  0  0  0  0  0  0  0  0  0  0  0
    2.1809   -2.9713   -1.0534 O   0  0  0  0  0  0  0  0  0  0  0  0
    3.7004   -2.4930    0.7728 C   0  0  0  0  0  0  0  0  0  0  0  0
    4.5790   -2.9973    1.7533 C   0  0  0  0  0  0  0  0  0  0  0  0
    5.9080   -2.5448    1.8400 C   0  0  0  0  0  0  0  0  0  0  0  0
    6.3762   -1.5448    0.9951 C   0  0  0  0  0  0  0  0  0  0  0  0
    5.4844   -0.9068    0.1518 C   0  0  0  0  0  0  0  0  0  0  0  0
    4.1438   -1.3176    0.1141 C   0  0  0  0  0  0  0  0  0  0  0  0
    3.2199   -0.4689   -0.5054 O   0  0  0  0  0  0  0  0  0  0  0  0
    3.1527    0.7621    0.1597 C   0  0  0  0  0  0  0  0  0  0  0  0
    4.0929    1.5418    0.2843 O   0  0  0  0  0  0  0  0  0  0  0  0
    1.8928    1.1369    0.5749 N   0  0  0  0  0  0  0  0  0  0  0  0
    0.7346    0.3658    0.3644 C   0  0  0  0  0  0  0  0  0  0  0  0
    0.8202   -1.0397    0.5737 C   0  0  0  0  0  0  0  0  0  0  0  0
    0.0000   -2.0000    0.0000 C   0  0  0  0  0  0  0  0  0  0  0  0
    0.0000   -3.0000    0.0000 C   0  0  0  0  0  0  0  0  0  0  0  0
   -1.1534   -1.3128   -0.5667 C   0  0  0  0  0  0  0  0  0  0  0  0
   -1.4188    0.0660   -0.5827 C   0  0  0  0  0  0  0  0  0  0  0  0
   -0.4479    0.9239   -0.1122 C   0  0  0  0  0  0  0  0  0  0  0  0
   -0.6887    2.3661   -0.1682 N   0  3  0  0  0  0  0  0  0  0  0  0
    0.2278    3.1267    0.1772 O   0  0  0  0  0  0  0  0  0  0  0  0
   -1.8072    2.7543   -0.5487 O   0  5  0  0  0  0  0  0  0  0  0  0
    2.1259   -8.0719   -0.8620 H   0  0  0  0  0  0  0  0  0  0  0  0
    2.0989   -7.9041    0.9476 H   0  0  0  0  0  0  0  0  0  0  0  0
    1.6715   -6.9650    0.0000 H   0  0  0  0  0  0  0  0  0  0  0  0
    5.5934   -8.5723   -0.4864 H   0  0  0  0  0  0  0  0  0  0  0  0
    4.6800   -7.9216   -1.9416 H   0  0  0  0  0  0  0  0  0  0  0  0
    3.4641   -7.0700    0.0000 H   0  0  0  0  0  0  0  0  0  0  0  0
    4.5697   -6.6879    1.8166 H   0  0  0  0  0  0  0  0  0  0  0  0
    2.5981   -5.5700    0.0000 H   0  0  0  0  0  0  0  0  0  0  0  0
    2.2916   -4.8774    2.3922 H   0  0  0  0  0  0  0  0  0  0  0  0
    1.2721   -3.6610    1.8591 H   0  0  0  0  0  0  0  0  0  0  0  0
    0.1229   -5.9197    0.5492 H   0  0  0  0  0  0  0  0  0  0  0  0
    0.7874   -6.5948    2.0489 H   0  0  0  0  0  0  0  0  0  0  0  0
   -1.3942   -5.7192    2.0633 H   0  0  0  0  0  0  0  0  0  0  0  0
    4.3217   -3.8489    2.3698 H   0  0  0  0  0  0  0  0  0  0  0  0
    6.6048   -3.0380    2.5139 H   0  0  0  0  0  0  0  0  0  0  0  0
    7.4194   -1.2411    1.0120 H   0  0  0  0  0  0  0  0  0  0  0  0
    5.8214   -0.0697   -0.4567 H   0  0  0  0  0  0  0  0  0  0  0  0
    1.8054    2.1463    0.6593 H   0  0  0  0  0  0  0  0  0  0  0  0
    1.6230   -1.3661    1.2240 H   0  0  0  0  0  0  0  0  0  0  0  0
   -0.2002   -3.2294   -1.0767 H   0  0  0  0  0  0  0  0  0  0  0  0
   -0.8767   -3.1972    0.6622 H   0  0  0  0  0  0  0  0  0  0  0  0
    0.0000   -4.0700    0.0000 H   0  0  0  0  0  0  0  0  0  0  0  0
   -1.9560   -1.9301   -0.9984 H   0  0  0  0  0  0  0  0  0  0  0  0
   -2.3605    0.4215   -0.9933 H   0  0  0  0  0  0  0  0  0  0  0  0
  1  2  1  0  0  0  0
  1 37  1  0  0  0  0
  1 38  1  0  0  0  0
  1 39  1  0  0  0  0
  2  3  2  0  0  0  0
  2  4  1  0  0  0  0
  4  5  1  0  0  0  0
  4 40  1  0  0  0  0
  4 41  1  0  0  0  0
  5  6  2  0  0  0  0
  5  7  1  0  0  0  0
  7  8  1  0  0  0  0
  7  9  1  0  0  0  0
  7 42  1  1  0  0  0
  8 43  1  0  0  0  0
  9 10  2  0  0  0  0
  9 11  1  0  0  0  0
 11 12  1  0  0  0  0
 11 15  1  0  0  0  0
 11 44  1  1  0  0  0
 12 13  1  0  0  0  0
 12 45  1  0  0  0  0
 12 46  1  0  0  0  0
 13 14  1  0  0  0  0
 13 47  1  0  0  0  0
 13 48  1  0  0  0  0
 14 49  1  0  0  0  0
 15 16  2  0  0  0  0
 15 17  1  0  0  0  0
 17 22  2  0  0  0  0
 17 18  1  0  0  0  0
 18 19  2  0  0  0  0
 18 50  1  0  0  0  0
 19 20  1  0  0  0  0
 19 51  1  0  0  0  0
 20 21  2  0  0  0  0
 20 52  1  0  0  0  0
 21 22  1  0  0  0  0
 21 53  1  0  0  0  0
 22 23  1  0  0  0  0
 23 24  1  0  0  0  0
 24 25  2  0  0  0  0
 24 26  1  0  0  0  0
 26 27  1  0  0  0  0
 26 54  1  0  0  0  0
 27 33  2  0  0  0  0
 27 28  1  0  0  0  0
 28 29  2  0  0  0  0
 28 55  1  0  0  0  0
 29 30  1  0  0  0  0
 29 31  1  0  0  0  0
 30 56  1  0  0  0  0
 30 57  1  0  0  0  0
 30 58  1  0  0  0  0
 31 32  2  0  0  0  0
 31 59  1  0  0  0  0
 32 33  1  0  0  0  0
 32 60  1  0  0  0  0
 33 34  1  0  0  0  0
 34 35  2  0  0  0  0
 34 36  1  0  0  0  0
M  CHG  2  34   1  36  -1
M  END
$$$$
