
 OpenBabel03202621372D

 40 41  0  0  1  0  0  0  0  0999 V2000
   -0.0933   -1.7796    0.0000 C   0  0  0  0  0  0  0  0  0  0  0  0
   -0.5000   -0.8660    0.0000 C   0  0  0  0  0  0  0  0  0  0  0  0
   -1.1118    0.0572   -0.8340 C   0  0  0  0  0  0  0  0  0  0  0  0
   -1.2706    1.1776   -0.0483 N   0  0  0  0  0  0  0  0  0  0  0  0
   -2.4867    1.9335    0.1002 C   0  0  0  0  0  0  0  0  0  0  0  0
   -3.4893    1.1512    0.9379 C   0  0  0  0  0  0  0  0  0  0  0  0
   -4.4784    1.7187    1.4144 O   0  0  0  0  0  0  0  0  0  0  0  0
   -3.3641   -0.2512    0.9583 N   0  0  0  0  0  0  0  0  0  0  0  0
   -4.1808   -1.1636    0.0000 C   0  0  2  0  0  0  0  0  0  0  0  0
   -5.0468   -0.6636    0.0000 C   0  0  0  0  0  0  0  0  0  0  0  0
   -4.1758   -2.5630    0.7488 C   0  0  0  0  0  0  0  0  0  0  0  0
   -5.4120   -3.5066    0.6805 C   0  0  0  0  0  0  0  0  0  0  0  0
   -6.7923   -2.9120    0.8787 C   0  0  0  0  0  0  0  0  0  0  0  0
   -7.8434   -3.3472    0.0557 C   0  0  0  0  0  0  0  0  0  0  0  0
   -9.0467   -2.6408    0.0051 C   0  0  0  0  0  0  0  0  0  0  0  0
   -9.2152   -1.4978    0.7823 C   0  0  0  0  0  0  0  0  0  0  0  0
   -8.2187   -1.1177    1.6780 C   0  0  0  0  0  0  0  0  0  0  0  0
   -7.0329   -1.8526    1.7656 C   0  0  0  0  0  0  0  0  0  0  0  0
   -0.5088    1.0998    1.0446 N   0  0  0  0  0  0  0  0  0  0  0  0
   -0.1621   -0.1603    1.1547 N   0  0  0  0  0  0  0  0  0  0  0  0
   -0.9659   -2.3630   -0.3746 H   0  0  0  0  0  0  0  0  0  0  0  0
    0.6485   -1.6501   -0.8240 H   0  0  0  0  0  0  0  0  0  0  0  0
    0.3419   -2.7571    0.0000 H   0  0  0  0  0  0  0  0  0  0  0  0
   -1.5343   -0.0158   -1.8261 H   0  0  0  0  0  0  0  0  0  0  0  0
   -2.8973    2.1333   -0.8913 H   0  0  0  0  0  0  0  0  0  0  0  0
   -2.2435    2.8744    0.6019 H   0  0  0  0  0  0  0  0  0  0  0  0
   -2.4346   -0.5909    1.1890 H   0  0  0  0  0  0  0  0  0  0  0  0
   -3.5530   -1.2955   -0.8944 H   0  0  0  0  0  0  0  0  0  0  0  0
   -4.8053    0.1584   -0.7331 H   0  0  0  0  0  0  0  0  0  0  0  0
   -5.6226   -1.3311   -0.6876 H   0  0  0  0  0  0  0  0  0  0  0  0
   -5.9734   -0.1286    0.0000 H   0  0  0  0  0  0  0  0  0  0  0  0
   -3.3160   -3.1321    0.3643 H   0  0  0  0  0  0  0  0  0  0  0  0
   -3.9473   -2.4129    1.8140 H   0  0  0  0  0  0  0  0  0  0  0  0
   -5.2815   -4.3011    1.4269 H   0  0  0  0  0  0  0  0  0  0  0  0
   -5.3819   -4.0004   -0.2993 H   0  0  0  0  0  0  0  0  0  0  0  0
   -7.7111   -4.2055   -0.5989 H   0  0  0  0  0  0  0  0  0  0  0  0
   -9.8338   -2.9574   -0.6733 H   0  0  0  0  0  0  0  0  0  0  0  0
  -10.1169   -0.8996    0.6843 H   0  0  0  0  0  0  0  0  0  0  0  0
   -8.3363   -0.2130    2.2701 H   0  0  0  0  0  0  0  0  0  0  0  0
   -6.2507   -1.4971    2.4346 H   0  0  0  0  0  0  0  0  0  0  0  0
  1  2  1  0  0  0  0
  1 21  1  0  0  0  0
  1 22  1  0  0  0  0
  1 23  1  0  0  0  0
  2 20  1  0  0  0  0
  2  3  2  0  0  0  0
  3  4  1  0  0  0  0
  3 24  1  0  0  0  0
  4  5  1  0  0  0  0
  4 19  1  0  0  0  0
  5  6  1  0  0  0  0
  5 25  1  0  0  0  0
  5 26  1  0  0  0  0
  6  7  2  0  0  0  0
  6  8  1  0  0  0  0
  8  9  1  0  0  0  0
  8 27  1  0  0  0  0
  9 10  1  0  0  0  0
  9 11  1  0  0  0  0
  9 28  1  6  0  0  0
 10 29  1  0  0  0  0
 10 30  1  0  0  0  0
 10 31  1  0  0  0  0
 11 12  1  0  0  0  0
 11 32  1  0  0  0  0
 11 33  1  0  0  0  0
 12 13  1  0  0  0  0
 12 34  1  0  0  0  0
 12 35  1  0  0  0  0
 13 18  2  0  0  0  0
 13 14  1  0  0  0  0
 14 15  2  0  0  0  0
 14 36  1  0  0  0  0
 15 16  1  0  0  0  0
 15 37  1  0  0  0  0
 16 17  2  0  0  0  0
 16 38  1  0  0  0  0
 17 18  1  0  0  0  0
 17 39  1  0  0  0  0
 18 40  1  0  0  0  0
 19 20  2  0  0  0  0
M  END
$$$$
