
 OpenBabel03202621392D

 43 42  0  0  0  0  0  0  0  0999 V2000
   -0.7321   -1.0000    0.0000 C   0  0  0  0  0  0  0  0  0  0  0  0
    0.1340   -1.5000    0.0000 C   0  0  0  0  0  0  0  0  0  0  0  0
    1.0000   -1.0000    0.0000 O   0  0  0  0  0  0  0  0  0  0  0  0
    1.0000    0.0000    0.0000 Si  0  0  0  0  0  0  0  0  0  0  0  0
    2.0000    0.0000    0.0000 C   0  0  0  0  0  0  0  0  0  0  0  0
    3.6507    0.0596    0.0902 C   0  0  0  0  0  0  0  0  0  0  0  0
    4.6376   -0.9638   -0.4208 C   0  0  0  0  0  0  0  0  0  0  0  0
    5.5375   -0.1179   -1.1919 N   0  0  0  0  0  0  0  0  0  0  0  0
    6.2122    0.6810   -0.2926 C   0  0  0  0  0  0  0  0  0  0  0  0
    7.2125    0.3013    0.2768 O   0  0  0  0  0  0  0  0  0  0  0  0
    5.5000    2.5981    0.0000 S   0  0  0  0  0  0  0  0  0  0  0  0
    6.5000    2.5981    0.0000 C   0  0  0  0  0  0  0  0  0  0  0  0
    1.0000    1.0000    0.0000 O   0  0  0  0  0  0  0  0  0  0  0  0
    1.8660    1.5000    0.0000 C   0  0  0  0  0  0  0  0  0  0  0  0
    1.8660    2.5000    0.0000 C   0  0  0  0  0  0  0  0  0  0  0  0
    0.0000    0.0000    0.0000 O   0  0  0  0  0  0  0  0  0  0  0  0
   -0.5000    0.8660    0.0000 C   0  0  0  0  0  0  0  0  0  0  0  0
    0.0000    1.7321    0.0000 C   0  0  0  0  0  0  0  0  0  0  0  0
   -1.2219   -1.3681    1.0018 H   0  0  0  0  0  0  0  0  0  0  0  0
   -1.3741   -1.6285   -0.7245 H   0  0  0  0  0  0  0  0  0  0  0  0
   -1.6588   -0.4650    0.0000 H   0  0  0  0  0  0  0  0  0  0  0  0
    0.1693   -2.3504    0.7598 H   0  0  0  0  0  0  0  0  0  0  0  0
    0.1885   -2.2890   -0.8269 H   0  0  0  0  0  0  0  0  0  0  0  0
    2.3763   -0.5421    1.0008 H   0  0  0  0  0  0  0  0  0  0  0  0
    2.3948   -0.4730   -1.0178 H   0  0  0  0  0  0  0  0  0  0  0  0
    3.9952    0.3977    1.0872 H   0  0  0  0  0  0  0  0  0  0  0  0
    3.8978    0.9004   -0.5512 H   0  0  0  0  0  0  0  0  0  0  0  0
    4.2507   -1.7676   -1.0406 H   0  0  0  0  0  0  0  0  0  0  0  0
    5.1883   -1.3784    0.4378 H   0  0  0  0  0  0  0  0  0  0  0  0
    5.0704    0.4217   -1.9166 H   0  0  0  0  0  0  0  0  0  0  0  0
    6.6670    2.5108    1.1011 H   0  0  0  0  0  0  0  0  0  0  0  0
    6.6660    3.6746   -0.2081 H   0  0  0  0  0  0  0  0  0  0  0  0
    7.5700    2.5981    0.0000 H   0  0  0  0  0  0  0  0  0  0  0  0
    2.4294    1.5425    1.0660 H   0  0  0  0  0  0  0  0  0  0  0  0
    2.4944    1.4947   -1.0349 H   0  0  0  0  0  0  0  0  0  0  0  0
    2.9459    2.7992    0.1639 H   0  0  0  0  0  0  0  0  0  0  0  0
    1.7307    2.8544   -1.1365 H   0  0  0  0  0  0  0  0  0  0  0  0
    1.8660    3.5700    0.0000 H   0  0  0  0  0  0  0  0  0  0  0  0
   -1.2672    0.9342   -0.8843 H   0  0  0  0  0  0  0  0  0  0  0  0
   -1.3463    0.9736    0.7978 H   0  0  0  0  0  0  0  0  0  0  0  0
   -0.3863    2.2708    0.9780 H   0  0  0  0  0  0  0  0  0  0  0  0
   -0.5813    2.3891   -0.7678 H   0  0  0  0  0  0  0  0  0  0  0  0
    0.5350    2.6588    0.0000 H   0  0  0  0  0  0  0  0  0  0  0  0
  1  2  1  0  0  0  0
  1 19  1  0  0  0  0
  1 20  1  0  0  0  0
  1 21  1  0  0  0  0
  2  3  1  0  0  0  0
  2 22  1  0  0  0  0
  2 23  1  0  0  0  0
  3  4  1  0  0  0  0
  4  5  1  0  0  0  0
  4 13  1  0  0  0  0
  4 16  1  0  0  0  0
  5  6  1  0  0  0  0
  5 24  1  0  0  0  0
  5 25  1  0  0  0  0
  6  7  1  0  0  0  0
  6 26  1  0  0  0  0
  6 27  1  0  0  0  0
  7  8  1  0  0  0  0
  7 28  1  0  0  0  0
  7 29  1  0  0  0  0
  8  9  1  0  0  0  0
  8 30  1  0  0  0  0
  9 10  2  0  0  0  0
  9 11  1  0  0  0  0
 11 12  1  0  0  0  0
 12 31  1  0  0  0  0
 12 32  1  0  0  0  0
 12 33  1  0  0  0  0
 13 14  1  0  0  0  0
 14 15  1  0  0  0  0
 14 34  1  0  0  0  0
 14 35  1  0  0  0  0
 15 36  1  0  0  0  0
 15 37  1  0  0  0  0
 15 38  1  0  0  0  0
 16 17  1  0  0  0  0
 17 18  1  0  0  0  0
 17 39  1  0  0  0  0
 17 40  1  0  0  0  0
 18 41  1  0  0  0  0
 18 42  1  0  0  0  0
 18 43  1  0  0  0  0
M  END
$$$$
