
 OpenBabel03202621362D

 21 22  0  0  0  0  0  0  0  0999 V2000
    1.4945   -0.9706    0.0000 C   0  0  0  0  0  0  0  0  0  0  0  0
    0.5000   -0.8660    0.0000 C   0  0  0  0  0  0  0  0  0  0  0  0
   -0.4437   -1.8797    0.0000 C   0  0  0  0  0  0  0  0  0  0  0  0
   -1.6815   -1.3075    0.0000 N   0  0  0  0  0  0  0  0  0  0  0  0
   -2.9158   -1.9921    0.0000 C   0  0  0  0  0  0  0  0  0  0  0  0
   -2.9331   -3.4021    0.0000 C   0  0  0  0  0  0  0  0  0  0  0  0
   -4.1413   -4.0961   -0.0000 C   0  0  0  0  0  0  0  0  0  0  0  0
   -5.3368   -3.3894   -0.0000 C   0  0  0  0  0  0  0  0  0  0  0  0
   -5.3271   -1.9928   -0.0000 C   0  0  0  0  0  0  0  0  0  0  0  0
   -4.1201   -1.2964    0.0000 C   0  0  0  0  0  0  0  0  0  0  0  0
   -4.1716    0.0418    0.0000 F   0  0  0  0  0  0  0  0  0  0  0  0
   -1.5317    0.0302    0.0000 N   0  0  0  0  0  0  0  0  0  0  0  0
   -0.2299    0.3058   -0.0000 N   0  0  0  0  0  0  0  0  0  0  0  0
    1.7512   -2.0428   -0.0000 H   0  0  0  0  0  0  0  0  0  0  0  0
    1.9340    0.0385   -0.0000 H   0  0  0  0  0  0  0  0  0  0  0  0
    2.5586   -1.0825    0.0000 H   0  0  0  0  0  0  0  0  0  0  0  0
   -0.2930   -2.9482    0.0000 H   0  0  0  0  0  0  0  0  0  0  0  0
   -2.0279   -4.0014    0.0000 H   0  0  0  0  0  0  0  0  0  0  0  0
   -4.1377   -5.1829   -0.0000 H   0  0  0  0  0  0  0  0  0  0  0  0
   -6.2813   -3.9270   -0.0000 H   0  0  0  0  0  0  0  0  0  0  0  0
   -6.2588   -1.4353   -0.0000 H   0  0  0  0  0  0  0  0  0  0  0  0
  1  2  1  0  0  0  0
  1 14  1  0  0  0  0
  1 15  1  0  0  0  0
  1 16  1  0  0  0  0
  2 13  1  0  0  0  0
  2  3  2  0  0  0  0
  3  4  1  0  0  0  0
  3 17  1  0  0  0  0
  4  5  1  0  0  0  0
  4 12  1  0  0  0  0
  5 10  2  0  0  0  0
  5  6  1  0  0  0  0
  6  7  2  0  0  0  0
  6 18  1  0  0  0  0
  7  8  1  0  0  0  0
  7 19  1  0  0  0  0
  8  9  2  0  0  0  0
  8 20  1  0  0  0  0
  9 10  1  0  0  0  0
  9 21  1  0  0  0  0
 10 11  1  0  0  0  0
 12 13  2  0  0  0  0
M  END
$$$$
