
 OpenBabel03202621402D

 32 34  0  0  0  0  0  0  0  0999 V2000
    2.0978    4.0039    0.0000 C   0  0  0  0  0  0  0  0  0  0  0  0
    2.3951    3.0883    0.0000 C   0  0  0  0  0  0  0  0  0  0  0  0
    1.7508    2.3731    0.0000 C   0  0  0  0  0  0  0  0  0  0  0  0
    3.2059    2.3309   -1.0797 O   0  0  0  0  0  0  0  0  0  0  0  0
    3.3102    0.7941   -0.8429 C   0  0  0  0  0  0  0  0  0  0  0  0
    4.6686    0.4312   -0.6236 C   0  0  0  0  0  0  0  0  0  0  0  0
    5.9414    1.6099   -0.6223 Cl  0  0  0  0  0  0  0  0  0  0  0  0
    5.0371   -0.8794   -0.3327 C   0  0  0  0  0  0  0  0  0  0  0  0
    4.0888   -1.8872   -0.2530 C   0  0  0  0  0  0  0  0  0  0  0  0
    4.5946   -3.4938    0.1337 Cl  0  0  0  0  0  0  0  0  0  0  0  0
    2.7345   -1.5851   -0.4268 C   0  0  0  0  0  0  0  0  0  0  0  0
    1.6828   -2.4642   -0.2906 N   0  0  0  0  0  0  0  0  0  0  0  0
    0.4996   -1.8197   -0.3725 C   0  0  0  0  0  0  0  0  0  0  0  0
    0.7403   -0.5011   -0.6849 C   0  0  0  0  0  0  0  0  0  0  0  0
    2.2439   -0.2834   -0.7229 C   0  0  0  0  0  0  0  0  0  0  0  0
   -0.5368    0.3378   -0.6810 C   0  0  0  0  0  0  0  0  0  0  0  0
   -1.8012   -0.3699   -0.7817 O   0  0  0  0  0  0  0  0  0  0  0  0
   -1.8121   -1.6621   -0.3100 C   0  0  0  0  0  0  0  0  0  0  0  0
   -0.7456   -2.4607   -0.0954 C   0  0  0  0  0  0  0  0  0  0  0  0
   -0.6355   -3.6434    0.3031 O   0  5  0  0  0  0  0  0  0  0  0  0
    3.0618    4.5452    0.2368 H   0  0  0  0  0  0  0  0  0  0  0  0
    2.0125    4.2326   -1.1105 H   0  0  0  0  0  0  0  0  0  0  0  0
    1.7673    5.0216    0.0000 H   0  0  0  0  0  0  0  0  0  0  0  0
    3.0951    2.9069    0.8474 H   0  0  0  0  0  0  0  0  0  0  0  0
    1.0296    2.5894   -0.8678 H   0  0  0  0  0  0  0  0  0  0  0  0
    1.2263    2.4737    1.0087 H   0  0  0  0  0  0  0  0  0  0  0  0
    1.0346    1.5781    0.0000 H   0  0  0  0  0  0  0  0  0  0  0  0
    6.0782   -1.1240   -0.1359 H   0  0  0  0  0  0  0  0  0  0  0  0
    1.7141   -3.4453   -0.0455 H   0  0  0  0  0  0  0  0  0  0  0  0
   -0.6377    0.8488    0.2896 H   0  0  0  0  0  0  0  0  0  0  0  0
   -0.5274    1.0806   -1.4760 H   0  0  0  0  0  0  0  0  0  0  0  0
   -2.8257   -2.0070   -0.1543 H   0  0  0  0  0  0  0  0  0  0  0  0
  1  2  1  0  0  0  0
  1 21  1  0  0  0  0
  1 22  1  0  0  0  0
  1 23  1  0  0  0  0
  2  3  1  0  0  0  0
  2  4  1  0  0  0  0
  2 24  1  0  0  0  0
  3 25  1  0  0  0  0
  3 26  1  0  0  0  0
  3 27  1  0  0  0  0
  4  5  1  0  0  0  0
  5 15  2  0  0  0  0
  5  6  1  0  0  0  0
  6  7  1  0  0  0  0
  6  8  2  0  0  0  0
  8  9  1  0  0  0  0
  8 28  1  0  0  0  0
  9 10  1  0  0  0  0
  9 11  2  0  0  0  0
 11 15  1  0  0  0  0
 11 12  1  0  0  0  0
 12 13  1  0  0  0  0
 12 29  1  0  0  0  0
 13 19  1  0  0  0  0
 13 14  2  0  0  0  0
 14 15  1  0  0  0  0
 14 16  1  0  0  0  0
 16 17  1  0  0  0  0
 16 30  1  0  0  0  0
 16 31  1  0  0  0  0
 17 18  1  0  0  0  0
 18 19  2  0  0  0  0
 18 32  1  0  0  0  0
 19 20  1  0  0  0  0
M  CHG  1  20  -1
M  END
$$$$
