
 OpenBabel03202621302D

 40 40  0  0  1  0  0  0  0  0999 V2000
    2.9890   -0.2091    0.0000 C   0  0  0  0  0  0  0  0  0  0  0  0
    2.5823    0.7045    0.0000 S   0  0  0  0  0  0  0  0  0  0  0  0
    1.8323    1.2188    1.4458 C   0  0  2  0  0  0  0  0  0  0  0  0
    1.6425    2.7365    1.3672 C   0  0  0  0  0  0  0  0  0  0  0  0
    2.9172    3.3896    1.4606 O   0  0  0  0  0  0  0  0  0  0  0  0
    0.7759    0.3998    0.8401 C   0  0  1  0  0  0  0  0  0  0  0  0
    1.2804   -1.4658    0.8939 C   0  0  0  0  0  0  0  0  0  0  0  0
    1.3114   -1.7607   -1.0014 C   0  0  0  0  0  0  0  0  0  0  0  0
    0.9389   -0.2032   -1.9470 C   0  0  0  0  0  0  0  0  0  0  0  0
    0.4008    1.0057   -0.8203 N   0  0  0  0  0  0  0  0  0  0  0  0
   -0.7894    1.6601   -1.0154 C   0  0  0  0  0  0  0  0  0  0  0  0
   -1.0833    2.4177   -1.9139 O   0  0  0  0  0  0  0  0  0  0  0  0
   -1.6734    1.2101   -0.0685 O   0  0  0  0  0  0  0  0  0  0  0  0
   -1.9890   -0.2091    0.0000 C   0  0  0  0  0  0  0  0  0  0  0  0
   -1.8845   -1.2036    0.0000 C   0  0  0  0  0  0  0  0  0  0  0  0
   -1.0755   -0.6158    0.0000 C   0  0  0  0  0  0  0  0  0  0  0  0
   -2.9836   -0.3136    0.0000 C   0  0  0  0  0  0  0  0  0  0  0  0
    3.4860   -0.1731   -0.9918 H   0  0  0  0  0  0  0  0  0  0  0  0
    3.8225   -0.0442    0.7190 H   0  0  0  0  0  0  0  0  0  0  0  0
    3.4242   -1.1866    0.0000 H   0  0  0  0  0  0  0  0  0  0  0  0
    2.2782    0.8683    2.3810 H   0  0  0  0  0  0  0  0  0  0  0  0
    1.0129    3.0977    2.1841 H   0  0  0  0  0  0  0  0  0  0  0  0
    1.1745    3.0927    0.4402 H   0  0  0  0  0  0  0  0  0  0  0  0
    3.3864    3.1710    0.6344 H   0  0  0  0  0  0  0  0  0  0  0  0
    0.9433   -0.1502   -0.0089 H   0  0  0  0  0  0  0  0  0  0  0  0
    0.4969   -2.0962    1.3466 H   0  0  0  0  0  0  0  0  0  0  0  0
    2.2088   -1.7003    1.4279 H   0  0  0  0  0  0  0  0  0  0  0  0
    2.2590   -2.1871   -1.3449 H   0  0  0  0  0  0  0  0  0  0  0  0
    0.5213   -2.4856   -1.2400 H   0  0  0  0  0  0  0  0  0  0  0  0
    1.8319    0.1796   -2.4525 H   0  0  0  0  0  0  0  0  0  0  0  0
    0.1670   -0.3725   -2.7083 H   0  0  0  0  0  0  0  0  0  0  0  0
   -2.3508   -1.6983   -1.0563 H   0  0  0  0  0  0  0  0  0  0  0  0
   -2.3348   -1.6905    1.0647 H   0  0  0  0  0  0  0  0  0  0  0  0
   -1.7727   -2.2677    0.0000 H   0  0  0  0  0  0  0  0  0  0  0  0
   -0.8060   -0.4770   -1.1309 H   0  0  0  0  0  0  0  0  0  0  0  0
   -0.8364   -0.3027    1.1414 H   0  0  0  0  0  0  0  0  0  0  0  0
   -0.0980   -1.0510    0.0000 H   0  0  0  0  0  0  0  0  0  0  0  0
   -3.2980    0.2725   -0.9288 H   0  0  0  0  0  0  0  0  0  0  0  0
   -3.2833    0.2867    0.9240 H   0  0  0  0  0  0  0  0  0  0  0  0
   -4.0477   -0.4254    0.0000 H   0  0  0  0  0  0  0  0  0  0  0  0
  1  2  1  0  0  0  0
  1 18  1  0  0  0  0
  1 19  1  0  0  0  0
  1 20  1  0  0  0  0
  2  3  1  0  0  0  0
  3  4  1  0  0  0  0
  3 21  1  6  0  0  0
  4  5  1  0  0  0  0
  4 22  1  0  0  0  0
  4 23  1  0  0  0  0
  5 24  1  0  0  0  0
  6  3  1  0  0  0  0
  6  7  1  0  0  0  0
  6 10  1  0  0  0  0
  6 25  1  6  0  0  0
  7  8  1  0  0  0  0
  7 26  1  0  0  0  0
  7 27  1  0  0  0  0
  8  9  1  0  0  0  0
  8 28  1  0  0  0  0
  8 29  1  0  0  0  0
  9 10  1  0  0  0  0
  9 30  1  0  0  0  0
  9 31  1  0  0  0  0
 10 11  1  0  0  0  0
 11 12  2  0  0  0  0
 11 13  1  0  0  0  0
 13 14  1  0  0  0  0
 14 15  1  0  0  0  0
 14 16  1  0  0  0  0
 14 17  1  0  0  0  0
 15 32  1  0  0  0  0
 15 33  1  0  0  0  0
 15 34  1  0  0  0  0
 16 35  1  0  0  0  0
 16 36  1  0  0  0  0
 16 37  1  0  0  0  0
 17 38  1  0  0  0  0
 17 39  1  0  0  0  0
 17 40  1  0  0  0  0
M  END
$$$$
