
 OpenBabel03202621362D

 21 21  0  0  1  0  0  0  0  0999 V2000
    0.8090    3.5878    0.0000 C   0  0  0  0  0  0  0  0  0  0  0  0
   -0.0570    3.0878    0.0000 S   0  0  0  0  0  0  0  0  0  0  0  0
   -0.1308    1.4505   -0.5577 C   0  0  0  0  0  0  0  0  0  0  0  0
   -1.4189    0.9182   -1.4792 S   0  0  0  0  0  0  0  0  0  0  0  0
    0.9176    0.6804   -0.1149 N   0  0  0  0  0  0  0  0  0  0  0  0
    1.1307   -0.7410   -0.3936 C   0  0  2  0  0  0  0  0  0  0  0  0
    2.4448   -1.2432    0.1624 C   0  0  0  0  0  0  0  0  0  0  0  0
    2.2233   -2.7383    0.2099 C   0  0  0  0  0  0  0  0  0  0  0  0
    0.8439   -2.9314    0.5364 O   0  0  0  0  0  0  0  0  0  0  0  0
    0.1369   -1.7117    0.2597 C   0  0  0  0  0  0  0  0  0  0  0  0
    0.9409    3.7354   -1.0912 H   0  0  0  0  0  0  0  0  0  0  0  0
    0.4541    4.5446    0.4277 H   0  0  0  0  0  0  0  0  0  0  0  0
    1.7356    4.1228    0.0000 H   0  0  0  0  0  0  0  0  0  0  0  0
    1.5941    1.1436    0.4796 H   0  0  0  0  0  0  0  0  0  0  0  0
    1.1175   -0.8844   -1.4830 H   0  0  0  0  0  0  0  0  0  0  0  0
    2.6011   -0.8637    1.1794 H   0  0  0  0  0  0  0  0  0  0  0  0
    3.3126   -0.9590   -0.4396 H   0  0  0  0  0  0  0  0  0  0  0  0
    2.4091   -3.2005   -0.7654 H   0  0  0  0  0  0  0  0  0  0  0  0
    2.8489   -3.2343    0.9571 H   0  0  0  0  0  0  0  0  0  0  0  0
   -0.2429   -1.3250    1.2132 H   0  0  0  0  0  0  0  0  0  0  0  0
   -0.7162   -1.9375   -0.3836 H   0  0  0  0  0  0  0  0  0  0  0  0
  1  2  1  0  0  0  0
  1 11  1  0  0  0  0
  1 12  1  0  0  0  0
  1 13  1  0  0  0  0
  2  3  1  0  0  0  0
  3  4  2  0  0  0  0
  3  5  1  0  0  0  0
  5 14  1  0  0  0  0
  6  5  1  0  0  0  0
  6  7  1  0  0  0  0
  6 10  1  0  0  0  0
  6 15  1  1  0  0  0
  7  8  1  0  0  0  0
  7 16  1  0  0  0  0
  7 17  1  0  0  0  0
  8  9  1  0  0  0  0
  8 18  1  0  0  0  0
  8 19  1  0  0  0  0
  9 10  1  0  0  0  0
 10 20  1  0  0  0  0
 10 21  1  0  0  0  0
M  END
$$$$
