
 OpenBabel03202621402D

 56 56  0  0  1  0  0  0  0  0999 V2000
    4.0000   -3.0000    0.0000 C   0  0  0  0  0  0  0  0  0  0  0  0
    4.5000   -2.1340    0.0000 C   0  0  0  0  0  0  0  0  0  0  0  0
    4.3936   -0.6555    0.2315 C   0  0  0  0  0  0  0  0  0  0  0  0
    3.3909   -0.0934   -0.7420 C   0  0  0  0  0  0  0  0  0  0  0  0
    3.0190   -1.2098   -2.0119 C   0  0  0  0  0  0  0  0  0  0  0  0
    1.9067   -2.7777   -1.8260 C   0  0  0  0  0  0  0  0  0  0  0  0
    1.0000   -3.0000    0.0000 C   0  0  0  0  0  0  0  0  0  0  0  0
    0.0000   -3.0000    0.0000 C   0  0  1  0  0  0  0  0  0  0  0  0
    0.0000   -4.0000    0.0000 O   0  0  0  0  0  0  0  0  0  0  0  0
   -1.0000   -3.0000    0.0000 C   0  0  0  0  0  0  0  0  0  0  0  0
   -1.7553   -2.5788   -0.9587 O   0  0  0  0  0  0  0  0  0  0  0  0
   -1.7455   -3.8269    0.7934 O   0  0  0  0  0  0  0  0  0  0  0  0
   -1.0000   -4.7321    0.0000 C   0  0  0  0  0  0  0  0  0  0  0  0
    0.0000   -4.7321    0.0000 C   0  0  0  0  0  0  0  0  0  0  0  0
    0.0000   -2.0000    0.0000 C   0  0  0  0  0  0  0  0  0  0  0  0
    0.5000   -1.1340    0.0000 C   0  0  0  0  0  0  0  0  0  0  0  0
    1.0000   -2.0000    0.0000 C   0  0  0  0  0  0  0  0  0  0  0  0
   -0.8894   -1.0886    1.2909 O   0  0  0  0  0  0  0  0  0  0  0  0
   -1.3705    0.5111    1.0782 C   0  0  0  0  0  0  0  0  0  0  0  0
   -2.6515    0.7221    0.8412 C   0  0  0  0  0  0  0  0  0  0  0  0
   -3.2663    2.0609    0.4087 C   0  0  0  0  0  0  0  0  0  0  0  0
   -2.4335    3.2333    0.4159 O   0  0  0  0  0  0  0  0  0  0  0  0
   -1.1081    2.9610    0.4840 C   0  0  0  0  0  0  0  0  0  0  0  0
   -0.4835    1.7498    0.8313 C   0  0  0  0  0  0  0  0  0  0  0  0
    0.7503    1.6892    0.9404 O   0  5  0  0  0  0  0  0  0  0  0  0
    4.6640   -3.6702   -0.6122 H   0  0  0  0  0  0  0  0  0  0  0  0
    4.0867   -3.2923    1.0780 H   0  0  0  0  0  0  0  0  0  0  0  0
    3.4650   -3.9266    0.0000 H   0  0  0  0  0  0  0  0  0  0  0  0
    5.4288   -2.2694    0.6206 H   0  0  0  0  0  0  0  0  0  0  0  0
    5.1422   -2.0446   -0.9153 H   0  0  0  0  0  0  0  0  0  0  0  0
    4.3203   -0.3847    1.2937 H   0  0  0  0  0  0  0  0  0  0  0  0
    5.3584   -0.2006   -0.0613 H   0  0  0  0  0  0  0  0  0  0  0  0
    3.7171    0.8760   -1.1024 H   0  0  0  0  0  0  0  0  0  0  0  0
    2.6119    0.2300   -0.0442 H   0  0  0  0  0  0  0  0  0  0  0  0
    3.4110   -0.9187   -2.9701 H   0  0  0  0  0  0  0  0  0  0  0  0
    3.8048   -1.8962   -1.9037 H   0  0  0  0  0  0  0  0  0  0  0  0
    1.1067   -2.6827   -2.5968 H   0  0  0  0  0  0  0  0  0  0  0  0
    2.5306   -3.5946   -2.0908 H   0  0  0  0  0  0  0  0  0  0  0  0
    1.6321   -3.3912    1.0784 H   0  0  0  0  0  0  0  0  0  0  0  0
    1.9167   -3.6910   -0.3648 H   0  0  0  0  0  0  0  0  0  0  0  0
    0.0590   -3.9194   -1.2998 H   0  0  0  0  0  0  0  0  0  0  0  0
   -1.6009   -4.9007   -0.9661 H   0  0  0  0  0  0  0  0  0  0  0  0
   -1.4442   -5.6842    0.4180 H   0  0  0  0  0  0  0  0  0  0  0  0
    0.1785   -5.6816   -0.7529 H   0  0  0  0  0  0  0  0  0  0  0  0
    0.2123   -5.4313    1.0277 H   0  0  0  0  0  0  0  0  0  0  0  0
    1.0700   -4.7321    0.0000 H   0  0  0  0  0  0  0  0  0  0  0  0
    0.1379   -0.8912   -1.2511 H   0  0  0  0  0  0  0  0  0  0  0  0
   -0.2588   -0.3256   -0.2284 H   0  0  0  0  0  0  0  0  0  0  0  0
    1.0350   -0.2074    0.0000 H   0  0  0  0  0  0  0  0  0  0  0  0
    1.4834   -1.6613    1.3054 H   0  0  0  0  0  0  0  0  0  0  0  0
    1.6191   -1.2592   -1.0404 H   0  0  0  0  0  0  0  0  0  0  0  0
    2.0700   -2.0000    0.0000 H   0  0  0  0  0  0  0  0  0  0  0  0
   -3.3489   -0.0974    0.8670 H   0  0  0  0  0  0  0  0  0  0  0  0
   -3.6372    1.9979   -0.6200 H   0  0  0  0  0  0  0  0  0  0  0  0
   -4.1144    2.3057    1.0481 H   0  0  0  0  0  0  0  0  0  0  0  0
   -0.5470    3.8325    0.2581 H   0  0  0  0  0  0  0  0  0  0  0  0
  1  2  1  0  0  0  0
  1 26  1  0  0  0  0
  1 27  1  0  0  0  0
  1 28  1  0  0  0  0
  2  3  1  0  0  0  0
  2 29  1  0  0  0  0
  2 30  1  0  0  0  0
  3  4  1  0  0  0  0
  3 31  1  0  0  0  0
  3 32  1  0  0  0  0
  4  5  1  0  0  0  0
  4 33  1  0  0  0  0
  4 34  1  0  0  0  0
  5  6  1  0  0  0  0
  5 35  1  0  0  0  0
  5 36  1  0  0  0  0
  6  7  1  0  0  0  0
  6 37  1  0  0  0  0
  6 38  1  0  0  0  0
  7  8  1  0  0  0  0
  7 39  1  0  0  0  0
  7 40  1  0  0  0  0
  8  9  1  6  0  0  0
  8 10  1  0  0  0  0
  8 15  1  0  0  0  0
  9 41  1  0  0  0  0
 10 11  2  0  0  0  0
 10 12  1  0  0  0  0
 12 13  1  0  0  0  0
 13 14  1  0  0  0  0
 13 42  1  0  0  0  0
 13 43  1  0  0  0  0
 14 44  1  0  0  0  0
 14 45  1  0  0  0  0
 14 46  1  0  0  0  0
 15 16  1  0  0  0  0
 15 17  1  0  0  0  0
 15 18  1  0  0  0  0
 16 47  1  0  0  0  0
 16 48  1  0  0  0  0
 16 49  1  0  0  0  0
 17 50  1  0  0  0  0
 17 51  1  0  0  0  0
 17 52  1  0  0  0  0
 18 19  1  0  0  0  0
 19 24  1  0  0  0  0
 19 20  2  0  0  0  0
 20 21  1  0  0  0  0
 20 53  1  0  0  0  0
 21 22  1  0  0  0  0
 21 54  1  0  0  0  0
 21 55  1  0  0  0  0
 22 23  1  0  0  0  0
 23 24  2  0  0  0  0
 23 56  1  0  0  0  0
 24 25  1  0  0  0  0
M  CHG  1  25  -1
M  END
$$$$
