
 OpenBabel03202621302D

 23 24  0  0  0  0  0  0  0  0999 V2000
   -0.6386   -1.6637    0.0000 C   0  0  0  0  0  0  0  0  0  0  0  0
   -0.7431   -0.6691    0.0000 C   0  0  0  0  0  0  0  0  0  0  0  0
   -1.5028    0.2486    0.7289 C   0  0  0  0  0  0  0  0  0  0  0  0
   -1.5484    1.3602   -0.0573 N   0  0  0  0  0  0  0  0  0  0  0  0
   -2.4911    2.4588   -0.0407 C   0  0  0  0  0  0  0  0  0  0  0  0
   -3.9604    2.1291   -0.2502 C   0  0  0  0  0  0  0  0  0  0  0  0
   -4.7407    3.0914   -0.2351 O   0  0  0  0  0  0  0  0  0  0  0  0
   -4.4514    0.7629   -0.3924 C   0  0  0  0  0  0  0  0  0  0  0  0
   -3.9584   -0.3350   -1.0758 C   0  0  0  0  0  0  0  0  0  0  0  0
   -4.7085   -1.5269   -0.8222 C   0  0  0  0  0  0  0  0  0  0  0  0
   -5.8150   -1.2585   -0.0626 C   0  0  0  0  0  0  0  0  0  0  0  0
   -7.0133   -2.3823    0.4371 Cl  0  0  0  0  0  0  0  0  0  0  0  0
   -5.9423    0.3634    0.3882 S   0  0  0  0  0  0  0  0  0  0  0  0
   -0.6176    1.3049   -1.0099 N   0  0  0  0  0  0  0  0  0  0  0  0
   -0.1392    0.0735   -1.0048 N   0  0  0  0  0  0  0  0  0  0  0  0
   -1.5402   -1.9841    0.5752 H   0  0  0  0  0  0  0  0  0  0  0  0
    0.2572   -1.7390    0.6611 H   0  0  0  0  0  0  0  0  0  0  0  0
   -0.5268   -2.7278    0.0000 H   0  0  0  0  0  0  0  0  0  0  0  0
   -2.1629    0.1144    1.5766 H   0  0  0  0  0  0  0  0  0  0  0  0
   -2.1947    3.1614   -0.8306 H   0  0  0  0  0  0  0  0  0  0  0  0
   -2.3777    2.9553    0.9278 H   0  0  0  0  0  0  0  0  0  0  0  0
   -3.0681   -0.3202   -1.6957 H   0  0  0  0  0  0  0  0  0  0  0  0
   -4.4547   -2.5128   -1.1945 H   0  0  0  0  0  0  0  0  0  0  0  0
  1  2  1  0  0  0  0
  1 16  1  0  0  0  0
  1 17  1  0  0  0  0
  1 18  1  0  0  0  0
  2 15  1  0  0  0  0
  2  3  2  0  0  0  0
  3  4  1  0  0  0  0
  3 19  1  0  0  0  0
  4  5  1  0  0  0  0
  4 14  1  0  0  0  0
  5  6  1  0  0  0  0
  5 20  1  0  0  0  0
  5 21  1  0  0  0  0
  6  7  2  0  0  0  0
  6  8  1  0  0  0  0
  8 13  1  0  0  0  0
  8  9  2  0  0  0  0
  9 10  1  0  0  0  0
  9 22  1  0  0  0  0
 10 11  2  0  0  0  0
 10 23  1  0  0  0  0
 11 12  1  0  0  0  0
 11 13  1  0  0  0  0
 14 15  2  0  0  0  0
M  END
$$$$
