
 OpenBabel03202621382D

 34 36  0  0  0  0  0  0  0  0999 V2000
   -0.0933   -1.7796    0.0000 C   0  0  0  0  0  0  0  0  0  0  0  0
   -0.5000   -0.8660    0.0000 C   0  0  0  0  0  0  0  0  0  0  0  0
   -1.2258   -0.1019    0.9004 C   0  0  0  0  0  0  0  0  0  0  0  0
   -1.5414    1.0602    0.2359 N   0  0  0  0  0  0  0  0  0  0  0  0
   -2.6570    1.9500    0.4626 C   0  0  0  0  0  0  0  0  0  0  0  0
   -3.9836    1.3886   -0.0364 C   0  0  0  0  0  0  0  0  0  0  0  0
   -4.9870    2.0970    0.0001 O   0  0  0  0  0  0  0  0  0  0  0  0
   -3.9629    0.0539   -0.4150 N   0  0  0  0  0  0  0  0  0  0  0  0
   -5.0213   -0.8680   -0.3439 C   0  0  0  0  0  0  0  0  0  0  0  0
   -4.7027   -2.2152   -0.5775 C   0  0  0  0  0  0  0  0  0  0  0  0
   -5.6885   -3.2001   -0.4907 C   0  0  0  0  0  0  0  0  0  0  0  0
   -6.9999   -2.8367   -0.2050 C   0  0  0  0  0  0  0  0  0  0  0  0
   -7.3110   -1.4972    0.0362 C   0  0  0  0  0  0  0  0  0  0  0  0
   -6.3218   -0.5182   -0.0047 C   0  0  0  0  0  0  0  0  0  0  0  0
   -8.5849   -1.0669    0.3090 O   0  0  0  0  0  0  0  0  0  0  0  0
   -9.5236   -1.9670   -0.2793 C   0  0  0  0  0  0  0  0  0  0  0  0
   -9.2406   -3.3962    0.1575 C   0  0  0  0  0  0  0  0  0  0  0  0
   -7.9312   -3.8406   -0.2142 O   0  0  0  0  0  0  0  0  0  0  0  0
   -0.9519    1.1057   -0.9583 N   0  0  0  0  0  0  0  0  0  0  0  0
   -0.3397   -0.0435   -1.1279 N   0  0  0  0  0  0  0  0  0  0  0  0
   -0.5913   -2.2185   -0.8972 H   0  0  0  0  0  0  0  0  0  0  0  0
    0.9762   -1.5240   -0.1917 H   0  0  0  0  0  0  0  0  0  0  0  0
    0.3419   -2.7571    0.0000 H   0  0  0  0  0  0  0  0  0  0  0  0
   -1.6116   -0.3150    1.8881 H   0  0  0  0  0  0  0  0  0  0  0  0
   -2.4476    2.8959   -0.0486 H   0  0  0  0  0  0  0  0  0  0  0  0
   -2.7270    2.1260    1.5407 H   0  0  0  0  0  0  0  0  0  0  0  0
   -3.0844   -0.3285   -0.7462 H   0  0  0  0  0  0  0  0  0  0  0  0
   -3.6848   -2.5205   -0.8078 H   0  0  0  0  0  0  0  0  0  0  0  0
   -5.4357   -4.2437   -0.6522 H   0  0  0  0  0  0  0  0  0  0  0  0
   -6.6091    0.5084    0.1918 H   0  0  0  0  0  0  0  0  0  0  0  0
   -9.4744   -1.8591   -1.3703 H   0  0  0  0  0  0  0  0  0  0  0  0
  -10.5229   -1.6615    0.0446 H   0  0  0  0  0  0  0  0  0  0  0  0
   -9.3403   -3.5033    1.2435 H   0  0  0  0  0  0  0  0  0  0  0  0
   -9.9577   -4.0707   -0.3199 H   0  0  0  0  0  0  0  0  0  0  0  0
  1  2  1  0  0  0  0
  1 21  1  0  0  0  0
  1 22  1  0  0  0  0
  1 23  1  0  0  0  0
  2 20  1  0  0  0  0
  2  3  2  0  0  0  0
  3  4  1  0  0  0  0
  3 24  1  0  0  0  0
  4  5  1  0  0  0  0
  4 19  1  0  0  0  0
  5  6  1  0  0  0  0
  5 25  1  0  0  0  0
  5 26  1  0  0  0  0
  6  7  2  0  0  0  0
  6  8  1  0  0  0  0
  8  9  1  0  0  0  0
  8 27  1  0  0  0  0
  9 14  2  0  0  0  0
  9 10  1  0  0  0  0
 10 11  2  0  0  0  0
 10 28  1  0  0  0  0
 11 12  1  0  0  0  0
 11 29  1  0  0  0  0
 12 18  1  0  0  0  0
 12 13  2  0  0  0  0
 13 14  1  0  0  0  0
 13 15  1  0  0  0  0
 14 30  1  0  0  0  0
 15 16  1  0  0  0  0
 16 17  1  0  0  0  0
 16 31  1  0  0  0  0
 16 32  1  0  0  0  0
 17 18  1  0  0  0  0
 17 33  1  0  0  0  0
 17 34  1  0  0  0  0
 19 20  2  0  0  0  0
M  END
$$$$
