
 OpenBabel03202621372D

 28 29  0  0  1  0  0  0  0  0999 V2000
   -1.5878   -0.8090    0.0000 C   0  0  0  0  0  0  0  0  0  0  0  0
   -1.0000    0.0000    0.0000 C   0  0  0  0  0  0  0  0  0  0  0  0
   -1.0914    1.0915   -0.8543 C   0  0  0  0  0  0  0  0  0  0  0  0
   -0.3654    2.0817   -0.2659 N   0  0  0  0  0  0  0  0  0  0  0  0
   -0.4603    3.4993   -0.5182 C   0  0  0  0  0  0  0  0  0  0  0  0
   -1.3808    4.2413    0.4670 C   0  0  2  0  0  0  0  0  0  0  0  0
   -1.3408    5.6430    0.1622 O   0  0  0  0  0  0  0  0  0  0  0  0
   -2.8299    3.7776    0.4372 C   0  0  0  0  0  0  0  0  0  0  0  0
   -3.2244    2.6731    1.2189 C   0  0  0  0  0  0  0  0  0  0  0  0
   -4.5361    2.1914    1.1811 C   0  0  0  0  0  0  0  0  0  0  0  0
   -5.4833    2.8247    0.3830 C   0  0  0  0  0  0  0  0  0  0  0  0
   -5.1107    3.9297   -0.3716 C   0  0  0  0  0  0  0  0  0  0  0  0
   -6.0272    4.5464   -1.1275 F   0  0  0  0  0  0  0  0  0  0  0  0
   -3.7992    4.4025   -0.3591 C   0  0  0  0  0  0  0  0  0  0  0  0
    0.3301    1.6094    0.7741 N   0  0  0  0  0  0  0  0  0  0  0  0
   -0.0433    0.3475    0.9502 N   0  0  0  0  0  0  0  0  0  0  0  0
   -2.0651   -0.6953    1.0027 H   0  0  0  0  0  0  0  0  0  0  0  0
   -0.8058   -1.6037    0.0313 H   0  0  0  0  0  0  0  0  0  0  0  0
   -2.2167   -1.6746    0.0000 H   0  0  0  0  0  0  0  0  0  0  0  0
   -1.7341    1.2858   -1.7029 H   0  0  0  0  0  0  0  0  0  0  0  0
    0.5552    3.9104   -0.4699 H   0  0  0  0  0  0  0  0  0  0  0  0
   -0.8014    3.6388   -1.5518 H   0  0  0  0  0  0  0  0  0  0  0  0
   -1.0100    4.1355    1.4954 H   0  0  0  0  0  0  0  0  0  0  0  0
   -0.5153    5.9986    0.5349 H   0  0  0  0  0  0  0  0  0  0  0  0
   -2.5002    2.1651    1.8558 H   0  0  0  0  0  0  0  0  0  0  0  0
   -4.8121    1.3243    1.7757 H   0  0  0  0  0  0  0  0  0  0  0  0
   -6.5089    2.4685    0.3491 H   0  0  0  0  0  0  0  0  0  0  0  0
   -3.5540    5.2721   -0.9634 H   0  0  0  0  0  0  0  0  0  0  0  0
  1  2  1  0  0  0  0
  1 17  1  0  0  0  0
  1 18  1  0  0  0  0
  1 19  1  0  0  0  0
  2 16  1  0  0  0  0
  2  3  2  0  0  0  0
  3  4  1  0  0  0  0
  3 20  1  0  0  0  0
  4  5  1  0  0  0  0
  4 15  1  0  0  0  0
  5  6  1  0  0  0  0
  5 21  1  0  0  0  0
  5 22  1  0  0  0  0
  6  7  1  0  0  0  0
  6  8  1  0  0  0  0
  6 23  1  6  0  0  0
  7 24  1  0  0  0  0
  8 14  2  0  0  0  0
  8  9  1  0  0  0  0
  9 10  2  0  0  0  0
  9 25  1  0  0  0  0
 10 11  1  0  0  0  0
 10 26  1  0  0  0  0
 11 12  2  0  0  0  0
 11 27  1  0  0  0  0
 12 13  1  0  0  0  0
 12 14  1  0  0  0  0
 14 28  1  0  0  0  0
 15 16  2  0  0  0  0
M  END
$$$$
