
 OpenBabel03202621332D

 28 29  0  0  1  0  0  0  0  0999 V2000
    1.4945   -0.9706    0.0000 C   0  0  0  0  0  0  0  0  0  0  0  0
    0.5000   -0.8660    0.0000 C   0  0  0  0  0  0  0  0  0  0  0  0
   -0.4468   -1.8704   -0.1619 C   0  0  0  0  0  0  0  0  0  0  0  0
   -1.6705   -1.2891    0.0243 N   0  0  0  0  0  0  0  0  0  0  0  0
   -2.9396   -1.9589    0.2923 C   0  0  2  0  0  0  0  0  0  0  0  0
   -2.9230   -3.2420   -0.3615 O   0  0  0  0  0  0  0  0  0  0  0  0
   -4.0439   -4.0462    0.0068 C   0  0  0  0  0  0  0  0  0  0  0  0
   -5.3624   -3.3842   -0.3836 C   0  0  1  0  0  0  0  0  0  0  0  0
   -6.4565   -4.1505    0.1178 O   0  0  0  0  0  0  0  0  0  0  0  0
   -5.4277   -1.9652    0.1750 C   0  0  2  0  0  0  0  0  0  0  0  0
   -6.5976   -1.3111   -0.3368 O   0  0  0  0  0  0  0  0  0  0  0  0
   -4.1730   -1.1525   -0.1651 C   0  0  1  0  0  0  0  0  0  0  0  0
   -4.3192    0.1163    0.4951 O   0  0  0  0  0  0  0  0  0  0  0  0
   -1.5311    0.0309    0.2158 N   0  0  0  0  0  0  0  0  0  0  0  0
   -0.2330    0.3029    0.2063 N   0  0  0  0  0  0  0  0  0  0  0  0
    1.6479   -1.1740    1.0874 H   0  0  0  0  0  0  0  0  0  0  0  0
    1.8237    0.0733   -0.2203 H   0  0  0  0  0  0  0  0  0  0  0  0
    2.5586   -1.0825    0.0000 H   0  0  0  0  0  0  0  0  0  0  0  0
   -0.3464   -2.9356   -0.3140 H   0  0  0  0  0  0  0  0  0  0  0  0
   -2.9515   -2.1016    1.3858 H   0  0  0  0  0  0  0  0  0  0  0  0
   -4.0067   -4.2599    1.0840 H   0  0  0  0  0  0  0  0  0  0  0  0
   -3.9490   -5.0129   -0.4992 H   0  0  0  0  0  0  0  0  0  0  0  0
   -5.4559   -3.3533   -1.4782 H   0  0  0  0  0  0  0  0  0  0  0  0
   -7.2488   -3.5906   -0.0234 H   0  0  0  0  0  0  0  0  0  0  0  0
   -5.5681   -2.0010    1.2647 H   0  0  0  0  0  0  0  0  0  0  0  0
   -6.5059   -0.3752   -0.0654 H   0  0  0  0  0  0  0  0  0  0  0  0
   -4.1387   -0.9577   -1.2446 H   0  0  0  0  0  0  0  0  0  0  0  0
   -3.4754    0.6055    0.3685 H   0  0  0  0  0  0  0  0  0  0  0  0
  1  2  1  0  0  0  0
  1 16  1  0  0  0  0
  1 17  1  0  0  0  0
  1 18  1  0  0  0  0
  2 15  1  0  0  0  0
  2  3  2  0  0  0  0
  3  4  1  0  0  0  0
  3 19  1  0  0  0  0
  4 14  1  0  0  0  0
  5  4  1  0  0  0  0
  5  6  1  0  0  0  0
  5 12  1  0  0  0  0
  5 20  1  1  0  0  0
  6  7  1  0  0  0  0
  7  8  1  0  0  0  0
  7 21  1  0  0  0  0
  7 22  1  0  0  0  0
  8  9  1  0  0  0  0
  8 10  1  0  0  0  0
  8 23  1  6  0  0  0
  9 24  1  0  0  0  0
 10 11  1  0  0  0  0
 10 12  1  0  0  0  0
 10 25  1  1  0  0  0
 11 26  1  0  0  0  0
 12 13  1  0  0  0  0
 12 27  1  6  0  0  0
 13 28  1  0  0  0  0
 14 15  2  0  0  0  0
M  END
$$$$
