
 OpenBabel03202621282D

 18 20  0  0  0  0  0  0  0  0999 V2000
   -0.9706   -1.4945    0.0000 C   0  0  0  0  0  0  0  0  0  0  0  0
   -0.8660   -0.5000    0.0000 C   0  0  0  0  0  0  0  0  0  0  0  0
   -1.6092    0.1691    0.0000 C   0  0  0  0  0  0  0  0  0  0  0  0
   -1.2024    1.0827    0.0000 N   0  0  0  0  0  0  0  0  0  0  0  0
   -1.7024    1.9487    0.0000 C   0  0  0  0  0  0  0  0  0  0  0  0
   -2.7024    1.9487    0.0000 C   0  0  0  0  0  0  0  0  0  0  0  0
   -3.2024    2.8147    0.0000 O   0  0  0  0  0  0  0  0  0  0  0  0
   -3.2024    1.0827    0.0000 C   0  0  0  0  0  0  0  0  0  0  0  0
   -2.7957    0.1691    0.0000 C   0  0  0  0  0  0  0  0  0  0  0  0
   -3.5388   -0.5000    0.0000 C   0  0  0  0  0  0  0  0  0  0  0  0
   -3.5388   -1.5000    0.0000 C   0  0  0  0  0  0  0  0  0  0  0  0
   -4.4049   -2.0000    0.0000 C   0  0  0  0  0  0  0  0  0  0  0  0
   -5.2709   -1.5000    0.0000 C   0  0  0  0  0  0  0  0  0  0  0  0
   -5.2709   -0.5000    0.0000 C   0  0  0  0  0  0  0  0  0  0  0  0
   -4.4049    0.0000    0.0000 C   0  0  0  0  0  0  0  0  0  0  0  0
   -4.1970    0.9781    0.0000 O   0  0  0  0  0  0  0  0  0  0  0  0
   -0.2079    0.9781    0.0000 N   0  0  0  0  0  0  0  0  0  0  0  0
    0.0000    0.0000    0.0000 N   0  0  0  0  0  0  0  0  0  0  0  0
  1  2  1  0  0  0  0
  2 18  1  0  0  0  0
  2  3  2  0  0  0  0
  3  4  1  0  0  0  0
  4  5  1  0  0  0  0
  4 17  1  0  0  0  0
  5  6  1  0  0  0  0
  6  7  2  0  0  0  0
  6  8  1  0  0  0  0
  8 16  1  0  0  0  0
  8  9  2  0  0  0  0
  9 10  1  0  0  0  0
 10 15  2  0  0  0  0
 10 11  1  0  0  0  0
 11 12  2  0  0  0  0
 12 13  1  0  0  0  0
 13 14  2  0  0  0  0
 14 15  1  0  0  0  0
 15 16  1  0  0  0  0
 17 18  2  0  0  0  0
M  END
$$$$
