
 OpenBabel03202621402D

 28 29  0  0  0  0  0  0  0  0999 V2000
    1.9013   -1.8841    0.0000 C   0  0  0  0  0  0  0  0  0  0  0  0
    1.4945   -0.9706    0.0000 C   0  0  0  0  0  0  0  0  0  0  0  0
   -0.0241   -0.9042    0.0135 C   0  0  0  0  0  0  0  0  0  0  0  0
   -0.9229   -1.8493    0.5563 C   0  0  0  0  0  0  0  0  0  0  0  0
   -2.1455   -1.4721    0.0587 C   0  0  0  0  0  0  0  0  0  0  0  0
   -3.4100   -2.2278   -0.0488 C   0  0  0  0  0  0  0  0  0  0  0  0
   -4.5391   -1.4137    0.1918 O   0  0  0  0  0  0  0  0  0  0  0  0
   -5.7667   -2.0813    0.1194 C   0  0  0  0  0  0  0  0  0  0  0  0
   -5.9101   -3.4087   -0.0709 C   0  0  0  0  0  0  0  0  0  0  0  0
   -7.2395   -4.0815   -0.1145 C   0  0  0  0  0  0  0  0  0  0  0  0
   -8.3851   -3.2757    0.1398 O   0  0  0  0  0  0  0  0  0  0  0  0
   -8.1689   -1.9352    0.2681 C   0  0  0  0  0  0  0  0  0  0  0  0
   -6.9922   -1.2750    0.2672 C   0  0  0  0  0  0  0  0  0  0  0  0
   -6.7922   -0.0358    0.3706 O   0  5  0  0  0  0  0  0  0  0  0  0
   -2.0186   -0.2896   -0.6003 O   0  0  0  0  0  0  0  0  0  0  0  0
   -0.6762    0.0811   -0.6188 N   0  0  0  0  0  0  0  0  0  0  0  0
    1.6572   -2.2080   -1.0450 H   0  0  0  0  0  0  0  0  0  0  0  0
    2.9844   -1.6028    0.0204 H   0  0  0  0  0  0  0  0  0  0  0  0
    2.3366   -2.8616    0.0000 H   0  0  0  0  0  0  0  0  0  0  0  0
    1.7270   -0.3728    0.9016 H   0  0  0  0  0  0  0  0  0  0  0  0
    1.7845   -0.2678   -0.8086 H   0  0  0  0  0  0  0  0  0  0  0  0
   -0.6960   -2.7646    1.0810 H   0  0  0  0  0  0  0  0  0  0  0  0
   -3.4560   -2.6531   -1.0609 H   0  0  0  0  0  0  0  0  0  0  0  0
   -3.3698   -3.0372    0.6907 H   0  0  0  0  0  0  0  0  0  0  0  0
   -5.0725   -4.0756   -0.1979 H   0  0  0  0  0  0  0  0  0  0  0  0
   -7.2433   -4.8940    0.6223 H   0  0  0  0  0  0  0  0  0  0  0  0
   -7.3717   -4.5457   -1.0996 H   0  0  0  0  0  0  0  0  0  0  0  0
   -9.1084   -1.4096    0.3854 H   0  0  0  0  0  0  0  0  0  0  0  0
  1  2  1  0  0  0  0
  1 17  1  0  0  0  0
  1 18  1  0  0  0  0
  1 19  1  0  0  0  0
  2  3  1  0  0  0  0
  2 20  1  0  0  0  0
  2 21  1  0  0  0  0
  3 16  2  0  0  0  0
  3  4  1  0  0  0  0
  4  5  2  0  0  0  0
  4 22  1  0  0  0  0
  5  6  1  0  0  0  0
  5 15  1  0  0  0  0
  6  7  1  0  0  0  0
  6 23  1  0  0  0  0
  6 24  1  0  0  0  0
  7  8  1  0  0  0  0
  8 13  1  0  0  0  0
  8  9  2  0  0  0  0
  9 10  1  0  0  0  0
  9 25  1  0  0  0  0
 10 11  1  0  0  0  0
 10 26  1  0  0  0  0
 10 27  1  0  0  0  0
 11 12  1  0  0  0  0
 12 13  2  0  0  0  0
 12 28  1  0  0  0  0
 13 14  1  0  0  0  0
 15 16  1  0  0  0  0
M  CHG  1  14  -1
M  END
$$$$
