
 OpenBabel03202621372D

 21 21  0  0  1  0  0  0  0  0999 V2000
   -0.7930   -2.8908    0.1564 C   0  0  0  0  0  0  0  0  0  0  0  0
   -0.0165   -1.7874    0.1273 C   0  0  0  0  0  0  0  0  0  0  0  0
    1.3379   -1.9243    0.5728 C   0  0  0  0  0  0  0  0  0  0  0  0
    2.4360   -2.0061    0.9349 N   0  0  0  0  0  0  0  0  0  0  0  0
   -0.5362   -0.4131   -0.3261 C   0  0  3  0  0  0  0  0  0  0  0  0
   -1.0549   -0.5420   -1.6597 O   0  0  0  0  0  0  0  0  0  0  0  0
   -1.6823    0.0467    0.6017 C   0  0  0  0  0  0  0  0  0  0  0  0
   -2.0166    1.5106    0.3436 C   0  0  0  0  0  0  0  0  0  0  0  0
   -0.9016    2.3722    0.5934 O   0  0  0  0  0  0  0  0  0  0  0  0
    0.2770    1.9280    0.0562 C   0  0  0  0  0  0  0  0  0  0  0  0
    0.5129    0.6901   -0.3982 C   0  0  0  0  0  0  0  0  0  0  0  0
    1.7244    0.3926   -1.0018 O   0  0  0  0  0  0  0  0  0  0  0  0
   -1.8366   -2.8741   -0.1407 H   0  0  0  0  0  0  0  0  0  0  0  0
   -0.4035   -3.8515    0.4864 H   0  0  0  0  0  0  0  0  0  0  0  0
   -1.7855   -1.1773   -1.6503 H   0  0  0  0  0  0  0  0  0  0  0  0
   -1.3842   -0.0656    1.6529 H   0  0  0  0  0  0  0  0  0  0  0  0
   -2.5879   -0.5501    0.4391 H   0  0  0  0  0  0  0  0  0  0  0  0
   -2.3721    1.6679   -0.6827 H   0  0  0  0  0  0  0  0  0  0  0  0
   -2.8244    1.8251    1.0135 H   0  0  0  0  0  0  0  0  0  0  0  0
    1.0082    2.7258    0.0300 H   0  0  0  0  0  0  0  0  0  0  0  0
    2.3989    0.3220   -0.2981 H   0  0  0  0  0  0  0  0  0  0  0  0
  1  2  2  0  0  0  0
  1 13  1  0  0  0  0
  1 14  1  0  0  0  0
  2  3  1  0  0  0  0
  2  5  1  0  0  0  0
  3  4  3  0  0  0  0
  5 11  1  0  0  0  0
  5  6  1  0  0  0  0
  5  7  1  0  0  0  0
  6 15  1  0  0  0  0
  7  8  1  0  0  0  0
  7 16  1  0  0  0  0
  7 17  1  0  0  0  0
  8  9  1  0  0  0  0
  8 18  1  0  0  0  0
  8 19  1  0  0  0  0
  9 10  1  0  0  0  0
 10 11  2  0  0  0  0
 10 20  1  0  0  0  0
 11 12  1  0  0  0  0
 12 21  1  0  0  0  0
M  END
$$$$
