
 OpenBabel03202621372D

 12 11  0  0  0  0  0  0  0  0999 V2000
    3.0000    0.0000    0.0000 C   0  0  0  0  0  0  0  0  0  0  0  0
    2.5000    0.8660    0.0000 S   0  0  0  0  0  0  0  0  0  0  0  0
    0.7138    0.3843    0.0083 C   0  0  0  0  0  0  0  0  0  0  0  0
    0.3385   -1.0324    0.4264 C   0  0  0  0  0  0  0  0  0  0  0  0
    0.8200   -1.9492   -0.4404 F   0  0  0  0  0  0  0  0  0  0  0  0
    0.8060   -1.3337    1.6568 F   0  0  0  0  0  0  0  0  0  0  0  0
   -1.0071   -1.1721    0.4582 F   0  0  0  0  0  0  0  0  0  0  0  0
    3.1517   -0.1169   -1.0916 H   0  0  0  0  0  0  0  0  0  0  0  0
    3.9538    0.3531    0.4358 H   0  0  0  0  0  0  0  0  0  0  0  0
    3.5350   -0.9266    0.0000 H   0  0  0  0  0  0  0  0  0  0  0  0
    0.3253    0.5728   -0.9999 H   0  0  0  0  0  0  0  0  0  0  0  0
    0.2092    1.0935    0.6736 H   0  0  0  0  0  0  0  0  0  0  0  0
  1  2  1  0  0  0  0
  1  8  1  0  0  0  0
  1  9  1  0  0  0  0
  1 10  1  0  0  0  0
  2  3  1  0  0  0  0
  3  4  1  0  0  0  0
  3 11  1  0  0  0  0
  3 12  1  0  0  0  0
  4  5  1  0  0  0  0
  4  6  1  0  0  0  0
  4  7  1  0  0  0  0
M  END
$$$$
