
 OpenBabel03202621282D

 36 38  0  0  1  0  0  0  0  0999 V2000
   -1.7321   -7.0000    0.0000 C   0  0  0  0  0  0  0  0  0  0  0  0
   -1.7321   -6.0000    0.0000 C   0  0  0  0  0  0  0  0  0  0  0  0
   -2.5981   -5.5000    0.0000 O   0  0  0  0  0  0  0  0  0  0  0  0
   -0.8660   -5.5000    0.0000 C   0  0  0  0  0  0  0  0  0  0  0  0
   -0.8660   -4.5000    0.0000 C   0  0  0  0  0  0  0  0  0  0  0  0
   -1.7321   -4.0000    0.0000 O   0  0  0  0  0  0  0  0  0  0  0  0
    0.0000   -4.0000    0.0000 C   0  0  2  0  0  0  0  0  0  0  0  0
    0.8660   -4.5000    0.0000 O   0  0  0  0  0  0  0  0  0  0  0  0
    0.0000   -3.0000    0.0000 C   0  0  0  0  0  0  0  0  0  0  0  0
   -0.8660   -2.5000    0.0000 O   0  0  0  0  0  0  0  0  0  0  0  0
    0.8660   -2.5000    0.0000 C   0  0  2  0  0  0  0  0  0  0  0  0
    1.7321   -3.0000    0.0000 C   0  0  0  0  0  0  0  0  0  0  0  0
    2.5981   -2.5000    0.0000 C   0  0  0  0  0  0  0  0  0  0  0  0
    3.4641   -3.0000    0.0000 N   0  0  0  0  0  0  0  0  0  0  0  0
    3.5686   -3.9945    0.0000 N   0  0  0  0  0  0  0  0  0  0  0  0
    4.5468   -4.2024    0.0000 N   0  0  0  0  0  0  0  0  0  0  0  0
    5.0468   -3.3364    0.0000 N   0  0  0  0  0  0  0  0  0  0  0  0
    4.3776   -2.5933    0.0000 C   0  0  0  0  0  0  0  0  0  0  0  0
    4.5856   -1.6151    0.0000 C   0  0  0  0  0  0  0  0  0  0  0  0
    5.5366   -1.3061    0.0000 C   0  0  0  0  0  0  0  0  0  0  0  0
    5.7445   -0.3280    0.0000 C   0  0  0  0  0  0  0  0  0  0  0  0
    6.6956   -0.0189    0.0000 C   0  0  0  0  0  0  0  0  0  0  0  0
    5.0014    0.3412    0.0000 C   0  0  0  0  0  0  0  0  0  0  0  0
    4.0503    0.0322    0.0000 N   0  0  0  0  0  0  0  0  0  0  0  0
    3.3072    0.7013    0.0000 C   0  0  0  0  0  0  0  0  0  0  0  0
    3.8424   -0.9460    0.0000 C   0  0  0  0  0  0  0  0  0  0  0  0
    2.8914   -1.2550    0.0000 O   0  0  0  0  0  0  0  0  0  0  0  0
    0.8660   -1.5000    0.0000 C   0  0  0  0  0  0  0  0  0  0  0  0
    1.7321   -1.0000    0.0000 O   0  0  0  0  0  0  0  0  0  0  0  0
    0.0000   -1.0000    0.0000 C   0  0  0  0  0  0  0  0  0  0  0  0
   -0.8660   -1.5000    0.0000 C   0  0  0  0  0  0  0  0  0  0  0  0
   -1.7321   -1.0000    0.0000 C   0  0  0  0  0  0  0  0  0  0  0  0
   -1.7321   -0.0000    0.0000 C   0  0  0  0  0  0  0  0  0  0  0  0
   -0.8660    0.5000    0.0000 C   0  0  0  0  0  0  0  0  0  0  0  0
   -0.0000   -0.0000    0.0000 C   0  0  0  0  0  0  0  0  0  0  0  0
    0.8660    0.5000    0.0000 O   0  5  0  0  0  0  0  0  0  0  0  0
  1  2  1  0  0  0  0
  2  3  2  0  0  0  0
  2  4  1  0  0  0  0
  4  5  1  0  0  0  0
  5  6  2  0  0  0  0
  5  7  1  0  0  0  0
  7  8  1  1  0  0  0
  7  9  1  0  0  0  0
  9 10  2  0  0  0  0
  9 11  1  0  0  0  0
 11 12  1  1  0  0  0
 11 28  1  0  0  0  0
 12 13  1  0  0  0  0
 13 14  1  0  0  0  0
 14 18  1  0  0  0  0
 14 15  1  0  0  0  0
 15 16  2  0  0  0  0
 16 17  1  0  0  0  0
 17 18  2  0  0  0  0
 18 19  1  0  0  0  0
 19 26  1  0  0  0  0
 19 20  2  0  0  0  0
 20 21  1  0  0  0  0
 21 22  1  0  0  0  0
 21 23  2  0  0  0  0
 23 24  1  0  0  0  0
 24 25  1  0  0  0  0
 24 26  1  0  0  0  0
 26 27  2  0  0  0  0
 28 29  2  0  0  0  0
 28 30  1  0  0  0  0
 30 35  2  0  0  0  0
 30 31  1  0  0  0  0
 31 32  2  0  0  0  0
 32 33  1  0  0  0  0
 33 34  2  0  0  0  0
 34 35  1  0  0  0  0
 35 36  1  0  0  0  0
M  CHG  1  36  -1
M  END
$$$$
