
 OpenBabel03202621322D

 21 21  0  0  1  0  0  0  0  0999 V2000
    0.6029    4.6022    0.3066 O   0  0  0  0  0  0  0  0  0  0  0  0
   -0.3240    3.8303    0.1048 C   0  0  0  0  0  0  0  0  0  0  0  0
   -0.2306    2.5011   -0.1237 O   0  0  0  0  0  0  0  0  0  0  0  0
    1.0970    1.9628   -0.0163 C   0  0  0  0  0  0  0  0  0  0  0  0
    1.0702    0.4922   -0.4319 C   0  0  2  0  0  0  0  0  0  0  0  0
    2.2186   -0.3274    0.1584 C   0  0  0  0  0  0  0  0  0  0  0  0
    1.7261   -1.7758    0.1662 C   0  0  0  0  0  0  0  0  0  0  0  0
    0.2290   -1.7216   -0.1112 C   0  0  1  0  0  0  0  0  0  0  0  0
   -0.4468   -2.4747    0.7884 F   0  0  0  0  0  0  0  0  0  0  0  0
   -0.1708   -0.2659    0.0314 C   0  0  0  0  0  0  0  0  0  0  0  0
   -1.3855    4.1242    0.0912 H   0  0  0  0  0  0  0  0  0  0  0  0
    1.4374    2.0712    1.0200 H   0  0  0  0  0  0  0  0  0  0  0  0
    1.7822    2.5155   -0.6712 H   0  0  0  0  0  0  0  0  0  0  0  0
    1.1130    0.4368   -1.5286 H   0  0  0  0  0  0  0  0  0  0  0  0
    3.1437   -0.2141   -0.4151 H   0  0  0  0  0  0  0  0  0  0  0  0
    2.4319   -0.0186    1.1898 H   0  0  0  0  0  0  0  0  0  0  0  0
    1.9428   -2.2610    1.1238 H   0  0  0  0  0  0  0  0  0  0  0  0
    2.2312   -2.3543   -0.6152 H   0  0  0  0  0  0  0  0  0  0  0  0
    0.0034   -2.1008   -1.1134 H   0  0  0  0  0  0  0  0  0  0  0  0
   -0.4256   -0.0342    1.0720 H   0  0  0  0  0  0  0  0  0  0  0  0
   -1.0460   -0.0341   -0.5853 H   0  0  0  0  0  0  0  0  0  0  0  0
  1  2  2  0  0  0  0
  2  3  1  0  0  0  0
  2 11  1  0  0  0  0
  3  4  1  0  0  0  0
  4 12  1  0  0  0  0
  4 13  1  0  0  0  0
  5  4  1  0  0  0  0
  5  6  1  0  0  0  0
  5 10  1  0  0  0  0
  5 14  1  1  0  0  0
  6  7  1  0  0  0  0
  6 15  1  0  0  0  0
  6 16  1  0  0  0  0
  7  8  1  0  0  0  0
  7 17  1  0  0  0  0
  7 18  1  0  0  0  0
  8  9  1  0  0  0  0
  8 10  1  0  0  0  0
  8 19  1  6  0  0  0
 10 20  1  0  0  0  0
 10 21  1  0  0  0  0
M  END
$$$$
