
 OpenBabel03202621332D

 16 16  0  0  0  0  0  0  0  0999 V2000
    0.2788   -1.7601    0.0000 C   0  0  0  0  0  0  0  0  0  0  0  0
   -0.3090   -0.9511    0.0000 C   0  0  0  0  0  0  0  0  0  0  0  0
   -1.6402   -0.9515    0.0000 N   0  0  0  0  0  0  0  0  0  0  0  0
   -2.0824    0.3264   -0.0000 C   0  0  0  0  0  0  0  0  0  0  0  0
   -1.0262    1.1986   -0.0000 C   0  0  0  0  0  0  0  0  0  0  0  0
   -1.1071    2.6287   -0.0000 C   0  0  0  0  0  0  0  0  0  0  0  0
   -0.1463    3.3883   -0.0000 O   0  0  0  0  0  0  0  0  0  0  0  0
    0.1235    0.4117   -0.0000 N   0  0  0  0  0  0  0  0  0  0  0  0
    1.4533    0.9290   -0.0000 C   0  0  0  0  0  0  0  0  0  0  0  0
    2.4405    0.1932    0.0000 O   0  0  0  0  0  0  0  0  0  0  0  0
   -0.3715   -2.6510    0.0000 H   0  0  0  0  0  0  0  0  0  0  0  0
    1.3291   -1.5020    0.0000 H   0  0  0  0  0  0  0  0  0  0  0  0
    0.9077   -2.6257    0.0000 H   0  0  0  0  0  0  0  0  0  0  0  0
   -3.1434    0.5453   -0.0000 H   0  0  0  0  0  0  0  0  0  0  0  0
   -2.1325    3.0362   -0.0000 H   0  0  0  0  0  0  0  0  0  0  0  0
    1.5955    2.0128   -0.0000 H   0  0  0  0  0  0  0  0  0  0  0  0
  1  2  1  0  0  0  0
  1 11  1  0  0  0  0
  1 12  1  0  0  0  0
  1 13  1  0  0  0  0
  2  8  1  0  0  0  0
  2  3  2  0  0  0  0
  3  4  1  0  0  0  0
  4  5  2  0  0  0  0
  4 14  1  0  0  0  0
  5  6  1  0  0  0  0
  5  8  1  0  0  0  0
  6  7  2  0  0  0  0
  6 15  1  0  0  0  0
  8  9  1  0  0  0  0
  9 10  2  0  0  0  0
  9 16  1  0  0  0  0
M  END
$$$$
