
 OpenBabel03202621332D

 38 40  0  0  1  0  0  0  0  0999 V2000
   -1.2601    1.2601    0.0000 C   0  0  0  0  0  0  0  0  0  0  0  0
   -0.3090    0.9511    0.0000 C   0  0  0  0  0  0  0  0  0  0  0  0
    0.6426    0.9690    0.9994 C   0  0  0  0  0  0  0  0  0  0  0  0
    1.7911    0.5891    0.3714 N   0  0  0  0  0  0  0  0  0  0  0  0
    3.0806    1.2043    0.5788 C   0  0  0  0  0  0  0  0  0  0  0  0
    3.1539    2.5221   -0.2276 C   0  0  1  0  0  0  0  0  0  0  0  0
    2.0618    3.5323    0.1731 C   0  0  0  0  0  0  0  0  0  0  0  0
    2.6085    4.8638   -0.2842 C   0  0  0  0  0  0  0  0  0  0  0  0
    4.1055    4.7216   -0.0673 C   0  0  0  0  0  0  0  0  0  0  0  0
    4.3909    3.2966   -0.0713 N   0  0  0  0  0  0  0  0  0  0  0  0
    5.6087    2.6393   -0.2209 C   0  0  0  0  0  0  0  0  0  0  0  0
    5.6262    1.4238   -0.4357 O   0  0  0  0  0  0  0  0  0  0  0  0
    6.9500    3.2913   -0.1188 C   0  0  0  0  0  0  0  0  0  0  0  0
    7.2017    4.6465    0.1038 C   0  0  0  0  0  0  0  0  0  0  0  0
    8.5172    5.1253    0.1401 C   0  0  0  0  0  0  0  0  0  0  0  0
    9.5904    4.2544   -0.0142 C   0  0  0  0  0  0  0  0  0  0  0  0
    9.3603    2.8994   -0.2040 C   0  0  0  0  0  0  0  0  0  0  0  0
    8.0506    2.4267   -0.2537 C   0  0  0  0  0  0  0  0  0  0  0  0
    1.5361    0.0365   -0.8193 N   0  0  0  0  0  0  0  0  0  0  0  0
    0.2733    0.2973   -1.0855 N   0  0  0  0  0  0  0  0  0  0  0  0
   -1.2442    1.9306   -0.8919 H   0  0  0  0  0  0  0  0  0  0  0  0
   -1.7787    0.2976   -0.2253 H   0  0  0  0  0  0  0  0  0  0  0  0
   -2.2777    1.5907    0.0000 H   0  0  0  0  0  0  0  0  0  0  0  0
    0.6385    1.3804    1.9979 H   0  0  0  0  0  0  0  0  0  0  0  0
    3.2178    1.3701    1.6525 H   0  0  0  0  0  0  0  0  0  0  0  0
    3.8022    0.4484    0.2627 H   0  0  0  0  0  0  0  0  0  0  0  0
    3.0580    2.3068   -1.3013 H   0  0  0  0  0  0  0  0  0  0  0  0
    1.0984    3.3360   -0.3041 H   0  0  0  0  0  0  0  0  0  0  0  0
    1.9188    3.5471    1.2607 H   0  0  0  0  0  0  0  0  0  0  0  0
    2.3822    5.0142   -1.3460 H   0  0  0  0  0  0  0  0  0  0  0  0
    2.1781    5.7038    0.2722 H   0  0  0  0  0  0  0  0  0  0  0  0
    4.3879    5.1248    0.9097 H   0  0  0  0  0  0  0  0  0  0  0  0
    4.6462    5.2249   -0.8723 H   0  0  0  0  0  0  0  0  0  0  0  0
    6.4228    5.3754    0.2580 H   0  0  0  0  0  0  0  0  0  0  0  0
    8.6987    6.1856    0.2972 H   0  0  0  0  0  0  0  0  0  0  0  0
   10.6100    4.6293    0.0127 H   0  0  0  0  0  0  0  0  0  0  0  0
   10.1883    2.2054   -0.3176 H   0  0  0  0  0  0  0  0  0  0  0  0
    7.8992    1.3579   -0.4019 H   0  0  0  0  0  0  0  0  0  0  0  0
  1  2  1  0  0  0  0
  1 21  1  0  0  0  0
  1 22  1  0  0  0  0
  1 23  1  0  0  0  0
  2 20  1  0  0  0  0
  2  3  2  0  0  0  0
  3  4  1  0  0  0  0
  3 24  1  0  0  0  0
  4  5  1  0  0  0  0
  4 19  1  0  0  0  0
  5 25  1  0  0  0  0
  5 26  1  0  0  0  0
  6  5  1  0  0  0  0
  6  7  1  0  0  0  0
  6 10  1  0  0  0  0
  6 27  1  6  0  0  0
  7  8  1  0  0  0  0
  7 28  1  0  0  0  0
  7 29  1  0  0  0  0
  8  9  1  0  0  0  0
  8 30  1  0  0  0  0
  8 31  1  0  0  0  0
  9 10  1  0  0  0  0
  9 32  1  0  0  0  0
  9 33  1  0  0  0  0
 10 11  1  0  0  0  0
 11 12  2  0  0  0  0
 11 13  1  0  0  0  0
 13 18  2  0  0  0  0
 13 14  1  0  0  0  0
 14 15  2  0  0  0  0
 14 34  1  0  0  0  0
 15 16  1  0  0  0  0
 15 35  1  0  0  0  0
 16 17  2  0  0  0  0
 16 36  1  0  0  0  0
 17 18  1  0  0  0  0
 17 37  1  0  0  0  0
 18 38  1  0  0  0  0
 19 20  2  0  0  0  0
M  END
$$$$
