
 OpenBabel03202621352D

 30 31  0  0  1  0  0  0  0  0999 V2000
    1.8605    0.6045    0.0000 C   0  0  0  0  0  0  0  0  0  0  0  0
    0.9945    0.1045    0.0000 C   0  0  1  0  0  0  0  0  0  0  0  0
   -0.2388    1.0512   -0.1967 C   0  0  0  0  0  0  0  0  0  0  0  0
   -0.7290    1.6932    0.7312 O   0  0  0  0  0  0  0  0  0  0  0  0
   -0.7330    1.0121   -1.4811 O   0  0  0  0  0  0  0  0  0  0  0  0
   -2.1216    1.1259   -1.3874 C   0  0  0  0  0  0  0  0  0  0  0  0
   -2.9167    0.0820   -1.6560 C   0  0  0  0  0  0  0  0  0  0  0  0
   -4.2546    0.0116   -1.3432 O   0  0  0  0  0  0  0  0  0  0  0  0
   -4.5256    0.7805   -0.1635 C   0  0  0  0  0  0  0  0  0  0  0  0
   -4.1809    2.2458   -0.3570 C   0  0  0  0  0  0  0  0  0  0  0  0
   -2.7832    2.3748   -0.9121 C   0  0  0  0  0  0  0  0  0  0  0  0
   -2.2304    3.4693   -1.0303 O   0  0  0  0  0  0  0  0  0  0  0  0
    0.8197   -1.1661   -0.8720 C   0  0  0  0  0  0  0  0  0  0  0  0
    0.1372   -2.1447   -0.2645 C   0  0  0  0  0  0  0  0  0  0  0  0
   -0.3147   -1.7326    1.0924 C   0  0  0  0  0  0  0  0  0  0  0  0
    0.6518   -0.5841    1.3960 C   0  0  0  0  0  0  0  0  0  0  0  0
    2.6071   -0.2194    0.1407 H   0  0  0  0  0  0  0  0  0  0  0  0
    1.9116    0.9388   -1.0683 H   0  0  0  0  0  0  0  0  0  0  0  0
    2.7871    1.1395    0.0000 H   0  0  0  0  0  0  0  0  0  0  0  0
   -2.5694   -0.8399   -2.1002 H   0  0  0  0  0  0  0  0  0  0  0  0
   -3.9696    0.3471    0.6798 H   0  0  0  0  0  0  0  0  0  0  0  0
   -5.5901    0.6685    0.0693 H   0  0  0  0  0  0  0  0  0  0  0  0
   -4.8683    2.7066   -1.0738 H   0  0  0  0  0  0  0  0  0  0  0  0
   -4.2398    2.7707    0.6017 H   0  0  0  0  0  0  0  0  0  0  0  0
    1.2394   -1.2570   -1.8682 H   0  0  0  0  0  0  0  0  0  0  0  0
   -0.0708   -3.1164   -0.6955 H   0  0  0  0  0  0  0  0  0  0  0  0
   -1.3562   -1.3958    1.0558 H   0  0  0  0  0  0  0  0  0  0  0  0
   -0.2241   -2.5325    1.8310 H   0  0  0  0  0  0  0  0  0  0  0  0
    0.2183    0.0939    2.1425 H   0  0  0  0  0  0  0  0  0  0  0  0
    1.5548   -1.0042    1.8683 H   0  0  0  0  0  0  0  0  0  0  0  0
  1 17  1  0  0  0  0
  1 18  1  0  0  0  0
  1 19  1  0  0  0  0
  2  1  1  0  0  0  0
  2 16  1  0  0  0  0
  2  3  1  6  0  0  0
  2 13  1  0  0  0  0
  3  4  2  0  0  0  0
  3  5  1  0  0  0  0
  5  6  1  0  0  0  0
  6 11  1  0  0  0  0
  6  7  2  0  0  0  0
  7  8  1  0  0  0  0
  7 20  1  0  0  0  0
  8  9  1  0  0  0  0
  9 10  1  0  0  0  0
  9 21  1  0  0  0  0
  9 22  1  0  0  0  0
 10 11  1  0  0  0  0
 10 23  1  0  0  0  0
 10 24  1  0  0  0  0
 11 12  2  0  0  0  0
 13 14  2  0  0  0  0
 13 25  1  0  0  0  0
 14 15  1  0  0  0  0
 14 26  1  0  0  0  0
 15 16  1  0  0  0  0
 15 27  1  0  0  0  0
 15 28  1  0  0  0  0
 16 29  1  0  0  0  0
 16 30  1  0  0  0  0
M  END
$$$$
