
 OpenBabel03202621332D

 27 27  0  0  0  0  0  0  0  0999 V2000
    4.3301   -1.5000    0.0000 C   0  0  0  0  0  0  0  0  0  0  0  0
    4.3301   -0.5000    0.0000 S   0  0  0  0  0  0  0  0  0  0  0  0
    2.9218    0.2456    0.6534 C   0  0  0  0  0  0  0  0  0  0  0  0
    2.7215    0.3478    1.8520 O   0  0  0  0  0  0  0  0  0  0  0  0
    2.0949    0.6740   -0.3419 N   0  0  0  0  0  0  0  0  0  0  0  0
    0.7853    1.2069   -0.0621 C   0  0  0  0  0  0  0  0  0  0  0  0
   -0.3031    0.1621   -0.1099 C   0  0  0  0  0  0  0  0  0  0  0  0
   -0.0696   -1.1867    0.1892 C   0  0  0  0  0  0  0  0  0  0  0  0
   -1.1123   -2.1136    0.1815 C   0  0  0  0  0  0  0  0  0  0  0  0
   -2.4206   -1.7101   -0.0901 C   0  0  0  0  0  0  0  0  0  0  0  0
   -3.3414   -2.7158   -0.0478 O   0  0  0  0  0  0  0  0  0  0  0  0
   -4.6940   -2.3408    0.1277 C   0  0  0  0  0  0  0  0  0  0  0  0
   -5.1783   -1.7390   -0.9806 F   0  0  0  0  0  0  0  0  0  0  0  0
   -5.4251   -3.4566    0.3498 F   0  0  0  0  0  0  0  0  0  0  0  0
   -4.8471   -1.5217    1.1891 F   0  0  0  0  0  0  0  0  0  0  0  0
   -2.6700   -0.3701   -0.3841 C   0  0  0  0  0  0  0  0  0  0  0  0
   -1.6211    0.5574   -0.3901 C   0  0  0  0  0  0  0  0  0  0  0  0
    4.3753   -1.6971    1.0914 H   0  0  0  0  0  0  0  0  0  0  0  0
    5.3471   -1.6701   -0.4022 H   0  0  0  0  0  0  0  0  0  0  0  0
    4.3301   -2.5700    0.0000 H   0  0  0  0  0  0  0  0  0  0  0  0
    2.3456    0.4430   -1.2921 H   0  0  0  0  0  0  0  0  0  0  0  0
    0.6005    1.9715   -0.8251 H   0  0  0  0  0  0  0  0  0  0  0  0
    0.7795    1.6898    0.9214 H   0  0  0  0  0  0  0  0  0  0  0  0
    0.9234   -1.5443    0.4485 H   0  0  0  0  0  0  0  0  0  0  0  0
   -0.9009   -3.1538    0.4135 H   0  0  0  0  0  0  0  0  0  0  0  0
   -3.6674   -0.0065   -0.6144 H   0  0  0  0  0  0  0  0  0  0  0  0
   -1.8452    1.6007   -0.6069 H   0  0  0  0  0  0  0  0  0  0  0  0
  1  2  1  0  0  0  0
  1 18  1  0  0  0  0
  1 19  1  0  0  0  0
  1 20  1  0  0  0  0
  2  3  1  0  0  0  0
  3  4  2  0  0  0  0
  3  5  1  0  0  0  0
  5  6  1  0  0  0  0
  5 21  1  0  0  0  0
  6  7  1  0  0  0  0
  6 22  1  0  0  0  0
  6 23  1  0  0  0  0
  7 17  2  0  0  0  0
  7  8  1  0  0  0  0
  8  9  2  0  0  0  0
  8 24  1  0  0  0  0
  9 10  1  0  0  0  0
  9 25  1  0  0  0  0
 10 11  1  0  0  0  0
 10 16  2  0  0  0  0
 11 12  1  0  0  0  0
 12 13  1  0  0  0  0
 12 14  1  0  0  0  0
 12 15  1  0  0  0  0
 16 17  1  0  0  0  0
 16 26  1  0  0  0  0
 17 27  1  0  0  0  0
M  END
$$$$
