
 OpenBabel03202621332D

 21 21  0  0  1  0  0  0  0  0999 V2000
   -0.9016   -1.5431   -0.9265 O   0  5  0  0  0  0  0  0  0  0  0  0
   -1.0552   -0.4352   -0.3499 C   0  0  0  0  0  0  0  0  0  0  0  0
   -2.2066    0.2165   -0.0964 C   0  0  0  0  0  0  0  0  0  0  0  0
   -2.3323    1.3836    0.5990 O   0  0  0  0  0  0  0  0  0  0  0  0
   -1.2503    2.2724    0.3653 C   0  0  0  0  0  0  0  0  0  0  0  0
    0.1541    1.6787    0.3323 C   0  0  0  0  0  0  0  0  0  0  0  0
    0.2236    0.1390    0.2899 C   0  0  3  0  0  0  0  0  0  0  0  0
    0.1828   -0.3110    1.6755 O   0  0  0  0  0  0  0  0  0  0  0  0
    1.6287   -0.2396   -0.3072 C   0  0  0  0  0  0  0  0  0  0  0  0
    2.5884    0.3052    0.5295 F   0  0  0  0  0  0  0  0  0  0  0  0
    1.8314    0.4103   -1.5023 F   0  0  0  0  0  0  0  0  0  0  0  0
    1.9431   -1.7281   -0.4860 C   0  0  1  0  0  0  0  0  0  0  0  0
    1.7597   -2.4387    0.6605 F   0  0  0  0  0  0  0  0  0  0  0  0
    3.6857   -1.9628   -0.9532 Cl  0  0  0  0  0  0  0  0  0  0  0  0
   -3.1717   -0.1971   -0.3505 H   0  0  0  0  0  0  0  0  0  0  0  0
   -1.4510    2.7817   -0.5856 H   0  0  0  0  0  0  0  0  0  0  0  0
   -1.2972    3.0540    1.1325 H   0  0  0  0  0  0  0  0  0  0  0  0
    0.7151    2.0558    1.1961 H   0  0  0  0  0  0  0  0  0  0  0  0
    0.6474    2.1145   -0.5465 H   0  0  0  0  0  0  0  0  0  0  0  0
   -0.2804   -1.1713    1.6099 H   0  0  0  0  0  0  0  0  0  0  0  0
    1.3992   -2.1988   -1.3066 H   0  0  0  0  0  0  0  0  0  0  0  0
  1  2  1  0  0  0  0
  2  7  1  0  0  0  0
  2  3  2  0  0  0  0
  3  4  1  0  0  0  0
  3 15  1  0  0  0  0
  4  5  1  0  0  0  0
  5  6  1  0  0  0  0
  5 16  1  0  0  0  0
  5 17  1  0  0  0  0
  6  7  1  0  0  0  0
  6 18  1  0  0  0  0
  6 19  1  0  0  0  0
  7  8  1  0  0  0  0
  7  9  1  0  0  0  0
  8 20  1  0  0  0  0
  9 10  1  0  0  0  0
  9 11  1  0  0  0  0
  9 12  1  0  0  0  0
 12 13  1  0  0  0  0
 12 14  1  0  0  0  0
 12 21  1  1  0  0  0
M  CHG  1   1  -1
M  END
$$$$
