
 OpenBabel03202621322D

 30 31  0  0  0  0  0  0  0  0999 V2000
   -2.5384    2.3736    0.0016 O   0  0  0  0  0  0  0  0  0  0  0  0
   -2.6047    1.1567   -0.0915 C   0  0  0  0  0  0  0  0  0  0  0  0
   -3.7488    0.4100   -0.1313 N   0  0  0  0  0  0  0  0  0  0  0  0
   -5.0217    0.9383   -0.0823 C   0  0  0  0  0  0  0  0  0  0  0  0
   -5.2603    2.1376   -0.0878 O   0  0  0  0  0  0  0  0  0  0  0  0
   -6.1553   -0.0257   -0.0463 C   0  0  0  0  0  0  0  0  0  0  0  0
   -5.9643   -1.4083   -0.0270 C   0  0  0  0  0  0  0  0  0  0  0  0
   -4.7281   -1.9335   -0.0327 F   0  0  0  0  0  0  0  0  0  0  0  0
   -7.0430   -2.2930   -0.0009 C   0  0  0  0  0  0  0  0  0  0  0  0
   -8.3452   -1.7991    0.0066 C   0  0  0  0  0  0  0  0  0  0  0  0
   -8.5560   -0.4234   -0.0066 C   0  0  0  0  0  0  0  0  0  0  0  0
   -7.4689    0.4514   -0.0312 C   0  0  0  0  0  0  0  0  0  0  0  0
   -7.7452    1.7625   -0.0388 F   0  0  0  0  0  0  0  0  0  0  0  0
   -1.5259    0.3210   -0.1623 O   0  0  0  0  0  0  0  0  0  0  0  0
   -0.1835    0.7526   -0.0643 C   0  0  0  0  0  0  0  0  0  0  0  0
    0.2490    1.9999    0.1724 C   0  0  0  0  0  0  0  0  0  0  0  0
    1.5283    2.4257    0.3422 O   0  0  0  0  0  0  0  0  0  0  0  0
    2.5868    1.5374    0.0235 C   0  0  0  0  0  0  0  0  0  0  0  0
    2.2889    0.0517    0.0098 C   0  0  0  0  0  0  0  0  0  0  0  0
    0.8431   -0.3084   -0.1603 C   0  0  0  0  0  0  0  0  0  0  0  0
    0.5026   -1.4802   -0.3338 O   0  0  0  0  0  0  0  0  0  0  0  0
   -3.6052   -0.5896   -0.1628 H   0  0  0  0  0  0  0  0  0  0  0  0
   -6.8594   -3.3641    0.0123 H   0  0  0  0  0  0  0  0  0  0  0  0
   -9.1925   -2.4813    0.0233 H   0  0  0  0  0  0  0  0  0  0  0  0
   -9.5631   -0.0138    0.0014 H   0  0  0  0  0  0  0  0  0  0  0  0
   -0.4026    2.8555    0.3016 H   0  0  0  0  0  0  0  0  0  0  0  0
    2.9999    1.8472   -0.9433 H   0  0  0  0  0  0  0  0  0  0  0  0
    3.3780    1.7269    0.7590 H   0  0  0  0  0  0  0  0  0  0  0  0
    2.8563   -0.4122   -0.8060 H   0  0  0  0  0  0  0  0  0  0  0  0
    2.6304   -0.4016    0.9466 H   0  0  0  0  0  0  0  0  0  0  0  0
  1  2  2  0  0  0  0
  2  3  1  0  0  0  0
  2 14  1  0  0  0  0
  3  4  1  0  0  0  0
  3 22  1  0  0  0  0
  4  5  2  0  0  0  0
  4  6  1  0  0  0  0
  6 12  2  0  0  0  0
  6  7  1  0  0  0  0
  7  8  1  0  0  0  0
  7  9  2  0  0  0  0
  9 10  1  0  0  0  0
  9 23  1  0  0  0  0
 10 11  2  0  0  0  0
 10 24  1  0  0  0  0
 11 12  1  0  0  0  0
 11 25  1  0  0  0  0
 12 13  1  0  0  0  0
 14 15  1  0  0  0  0
 15 20  1  0  0  0  0
 15 16  2  0  0  0  0
 16 17  1  0  0  0  0
 16 26  1  0  0  0  0
 17 18  1  0  0  0  0
 18 19  1  0  0  0  0
 18 27  1  0  0  0  0
 18 28  1  0  0  0  0
 19 20  1  0  0  0  0
 19 29  1  0  0  0  0
 19 30  1  0  0  0  0
 20 21  2  0  0  0  0
M  END
$$$$
