
 OpenBabel03202621382D

 20 20  0  0  0  0  0  0  0  0999 V2000
    0.3901    1.3286   -0.9357 N   0  0  0  0  0  0  0  0  0  0  0  0
    0.7215    0.0961   -0.1989 C   0  0  0  0  0  0  0  0  0  0  0  0
    2.1907   -0.1399    0.1193 C   0  0  0  0  0  0  0  0  0  0  0  0
    2.9884    1.1392    0.3523 C   0  0  0  0  0  0  0  0  0  0  0  0
    4.3497    0.7890    0.6460 O   0  0  0  0  0  0  0  0  0  0  0  0
    5.2552    1.7694    0.4420 C   0  0  0  0  0  0  0  0  0  0  0  0
    6.4605    1.6288    0.5929 O   0  0  0  0  0  0  0  0  0  0  0  0
   -0.0775   -1.1407   -0.5488 C   0  0  0  0  0  0  0  0  0  0  0  0
   -0.3244   -0.4409    0.7530 C   0  0  0  0  0  0  0  0  0  0  0  0
    0.3450    2.1251   -0.2997 H   0  0  0  0  0  0  0  0  0  0  0  0
   -0.5405    1.2693   -1.3503 H   0  0  0  0  0  0  0  0  0  0  0  0
    2.2949   -0.7888    0.9991 H   0  0  0  0  0  0  0  0  0  0  0  0
    2.6524   -0.6962   -0.7068 H   0  0  0  0  0  0  0  0  0  0  0  0
    2.5820    1.6947    1.2045 H   0  0  0  0  0  0  0  0  0  0  0  0
    2.9537    1.7757   -0.5390 H   0  0  0  0  0  0  0  0  0  0  0  0
    4.7984    2.7230    0.1313 H   0  0  0  0  0  0  0  0  0  0  0  0
    0.4197   -2.1047   -0.5199 H   0  0  0  0  0  0  0  0  0  0  0  0
   -0.8325   -1.0737   -1.3238 H   0  0  0  0  0  0  0  0  0  0  0  0
   -1.2620    0.0926    0.8633 H   0  0  0  0  0  0  0  0  0  0  0  0
   -0.0057   -0.9426    1.6599 H   0  0  0  0  0  0  0  0  0  0  0  0
  1  2  1  0  0  0  0
  1 10  1  0  0  0  0
  1 11  1  0  0  0  0
  2  9  1  0  0  0  0
  2  3  1  0  0  0  0
  2  8  1  0  0  0  0
  3  4  1  0  0  0  0
  3 12  1  0  0  0  0
  3 13  1  0  0  0  0
  4  5  1  0  0  0  0
  4 14  1  0  0  0  0
  4 15  1  0  0  0  0
  5  6  1  0  0  0  0
  6  7  2  0  0  0  0
  6 16  1  0  0  0  0
  8  9  1  0  0  0  0
  8 17  1  0  0  0  0
  8 18  1  0  0  0  0
  9 19  1  0  0  0  0
  9 20  1  0  0  0  0
M  END
$$$$
