
 OpenBabel03202621302D

 34 35  0  0  1  0  0  0  0  0999 V2000
    1.5180    4.8564    0.0000 C   0  0  0  0  0  0  0  0  0  0  0  0
    0.5398    4.6485    0.0000 S   0  0  0  0  0  0  0  0  0  0  0  0
    0.1368    3.1406   -0.9050 C   0  0  2  0  0  0  0  0  0  0  0  0
   -1.3579    2.9543   -0.5334 C   0  0  0  0  0  0  0  0  0  0  0  0
   -2.0296    2.0110   -1.3544 O   0  0  0  0  0  0  0  0  0  0  0  0
    1.0896    2.0516   -0.4391 C   0  0  0  0  0  0  0  0  0  0  0  0
    0.8832    0.8444   -1.1488 O   0  0  0  0  0  0  0  0  0  0  0  0
    1.8604   -0.0601   -0.7207 N   0  0  0  0  0  0  0  0  0  0  0  0
    1.3266   -1.1086   -0.1944 C   0  0  0  0  0  0  0  0  0  0  0  0
    2.1648   -2.2946    0.1987 C   0  0  0  0  0  0  0  0  0  0  0  0
    1.1673   -3.4596    0.1437 C   0  0  0  0  0  0  0  0  0  0  0  0
   -0.1713   -2.7896    0.2323 C   0  0  0  0  0  0  0  0  0  0  0  0
   -1.4176   -3.3755    0.3774 C   0  0  0  0  0  0  0  0  0  0  0  0
   -2.5499   -2.5520    0.4482 C   0  0  0  0  0  0  0  0  0  0  0  0
   -2.4203   -1.1628    0.4191 C   0  0  0  0  0  0  0  0  0  0  0  0
   -1.1679   -0.5872    0.2520 C   0  0  0  0  0  0  0  0  0  0  0  0
   -0.0695   -1.4176    0.0957 C   0  0  0  0  0  0  0  0  0  0  0  0
    1.6346    5.2050   -1.0465 H   0  0  0  0  0  0  0  0  0  0  0  0
    1.5007    5.7560    0.6442 H   0  0  0  0  0  0  0  0  0  0  0  0
    2.5646    5.0788    0.0000 H   0  0  0  0  0  0  0  0  0  0  0  0
    0.2111    3.2823   -1.9891 H   0  0  0  0  0  0  0  0  0  0  0  0
   -1.9117    3.8941   -0.6633 H   0  0  0  0  0  0  0  0  0  0  0  0
   -1.4739    2.6569    0.5168 H   0  0  0  0  0  0  0  0  0  0  0  0
   -2.9624    2.0109   -1.0672 H   0  0  0  0  0  0  0  0  0  0  0  0
    0.9634    1.8572    0.6351 H   0  0  0  0  0  0  0  0  0  0  0  0
    2.1301    2.3624   -0.6098 H   0  0  0  0  0  0  0  0  0  0  0  0
    2.5448   -2.1281    1.2116 H   0  0  0  0  0  0  0  0  0  0  0  0
    3.0087   -2.4374   -0.4822 H   0  0  0  0  0  0  0  0  0  0  0  0
    1.2554   -3.9960   -0.8081 H   0  0  0  0  0  0  0  0  0  0  0  0
    1.3329   -4.1498    0.9757 H   0  0  0  0  0  0  0  0  0  0  0  0
   -1.5284   -4.4532    0.4115 H   0  0  0  0  0  0  0  0  0  0  0  0
   -3.5430   -2.9935    0.5292 H   0  0  0  0  0  0  0  0  0  0  0  0
   -3.2975   -0.5232    0.5040 H   0  0  0  0  0  0  0  0  0  0  0  0
   -1.0587    0.4762    0.2400 H   0  0  0  0  0  0  0  0  0  0  0  0
  1  2  1  0  0  0  0
  1 18  1  0  0  0  0
  1 19  1  0  0  0  0
  1 20  1  0  0  0  0
  2  3  1  0  0  0  0
  3  4  1  0  0  0  0
  3  6  1  0  0  0  0
  3 21  1  6  0  0  0
  4  5  1  0  0  0  0
  4 22  1  0  0  0  0
  4 23  1  0  0  0  0
  5 24  1  0  0  0  0
  6  7  1  0  0  0  0
  6 25  1  0  0  0  0
  6 26  1  0  0  0  0
  7  8  1  0  0  0  0
  8  9  2  3  0  0  0
  9 17  1  0  0  0  0
  9 10  1  0  0  0  0
 10 11  1  0  0  0  0
 10 27  1  0  0  0  0
 10 28  1  0  0  0  0
 11 12  1  0  0  0  0
 11 29  1  0  0  0  0
 11 30  1  0  0  0  0
 12 17  2  0  0  0  0
 12 13  1  0  0  0  0
 13 14  2  0  0  0  0
 13 31  1  0  0  0  0
 14 15  1  0  0  0  0
 14 32  1  0  0  0  0
 15 16  2  0  0  0  0
 15 33  1  0  0  0  0
 16 17  1  0  0  0  0
 16 34  1  0  0  0  0
M  END
$$$$
