
 OpenBabel03202621392D

 59 60  0  0  1  0  0  0  0  0999 V2000
    3.4641    0.0000    0.0000 C   0  0  0  0  0  0  0  0  0  0  0  0
    2.5981    0.5000    0.0000 N   0  0  0  0  0  0  0  0  0  0  0  0
    1.3796   -0.0247    0.3985 C   0  0  0  0  0  0  0  0  0  0  0  0
    1.0702   -1.2092    0.3040 O   0  0  0  0  0  0  0  0  0  0  0  0
    0.5364    0.9887    1.1941 C   0  0  2  0  0  0  0  0  0  0  0  0
    0.9559    2.4553    1.0540 C   0  0  0  0  0  0  0  0  0  0  0  0
   -0.1413    3.3496    1.5728 C   0  0  0  0  0  0  0  0  0  0  0  0
    0.0786    4.2890    2.3270 O   0  0  0  0  0  0  0  0  0  0  0  0
   -1.3886    3.0021    1.1098 N   0  0  0  0  0  0  0  0  0  0  0  0
   -1.5899    3.3068   -0.3127 C   0  0  0  0  0  0  0  0  0  0  0  0
   -2.9916    2.9841   -0.8468 C   0  0  0  0  0  0  0  0  0  0  0  0
   -4.0708    3.7690   -0.0708 C   0  0  2  0  0  0  0  0  0  0  0  0
   -4.5505    4.9054   -0.9720 C   0  0  0  0  0  0  0  0  0  0  0  0
   -3.7826    5.4837   -1.7446 O   0  0  0  0  0  0  0  0  0  0  0  0
   -5.8491    5.5293   -0.7470 C   0  0  0  0  0  0  0  0  0  0  0  0
   -7.0394    4.8588   -1.0140 C   0  0  0  0  0  0  0  0  0  0  0  0
   -8.2467    5.4507   -0.6487 C   0  0  0  0  0  0  0  0  0  0  0  0
   -8.2540    6.7068   -0.0395 C   0  0  0  0  0  0  0  0  0  0  0  0
   -7.0624    7.4036    0.1723 C   0  0  0  0  0  0  0  0  0  0  0  0
   -5.8607    6.8251   -0.2070 C   0  0  0  0  0  0  0  0  0  0  0  0
   -4.7214    7.5607   -0.0331 O   0  0  0  0  0  0  0  0  0  0  0  0
   -5.1110    2.9736    0.7369 C   0  0  0  0  0  0  0  0  0  0  0  0
   -5.9694    3.5685    1.3962 O   0  0  0  0  0  0  0  0  0  0  0  0
   -4.9854    1.4586    0.8581 C   0  0  1  0  0  0  0  0  0  0  0  0
   -5.2960    0.9491    2.1472 O   0  0  0  0  0  0  0  0  0  0  0  0
   -5.7090    0.6846   -0.2185 C   0  0  0  0  0  0  0  0  0  0  0  0
   -6.2651    1.2453   -1.1677 O   0  0  0  0  0  0  0  0  0  0  0  0
   -5.7011   -0.8197   -0.0994 C   0  0  0  0  0  0  0  0  0  0  0  0
   -4.3301   -1.5000    0.0000 C   0  0  0  0  0  0  0  0  0  0  0  0
   -4.3301   -2.5000    0.0000 C   0  0  0  0  0  0  0  0  0  0  0  0
   -3.3209   -0.7841    0.0541 O   0  0  0  0  0  0  0  0  0  0  0  0
   -1.6738    1.7245    1.5130 C   0  0  0  0  0  0  0  0  0  0  0  0
   -2.5107    1.4391    2.3615 O   0  0  0  0  0  0  0  0  0  0  0  0
   -0.8703    0.7786    0.9326 N   0  0  0  0  0  0  0  0  0  0  0  0
    3.4241   -0.4409    1.0250 H   0  0  0  0  0  0  0  0  0  0  0  0
    4.1483    0.8753    0.0838 H   0  0  0  0  0  0  0  0  0  0  0  0
    4.3907   -0.5350    0.0000 H   0  0  0  0  0  0  0  0  0  0  0  0
    2.5272    1.4096   -0.4435 H   0  0  0  0  0  0  0  0  0  0  0  0
    0.6806    0.7110    2.2486 H   0  0  0  0  0  0  0  0  0  0  0  0
    1.8737    2.6415    1.6234 H   0  0  0  0  0  0  0  0  0  0  0  0
    1.1452    2.7488    0.0162 H   0  0  0  0  0  0  0  0  0  0  0  0
   -0.8602    2.7603   -0.9221 H   0  0  0  0  0  0  0  0  0  0  0  0
   -1.3723    4.3741   -0.4523 H   0  0  0  0  0  0  0  0  0  0  0  0
   -2.9994    3.2446   -1.9135 H   0  0  0  0  0  0  0  0  0  0  0  0
   -3.1350    1.9046   -0.8614 H   0  0  0  0  0  0  0  0  0  0  0  0
   -3.5603    4.3171    0.7374 H   0  0  0  0  0  0  0  0  0  0  0  0
   -7.0364    3.8655   -1.4561 H   0  0  0  0  0  0  0  0  0  0  0  0
   -9.1815    4.9194   -0.8131 H   0  0  0  0  0  0  0  0  0  0  0  0
   -9.1995    7.1509    0.2785 H   0  0  0  0  0  0  0  0  0  0  0  0
   -7.0710    8.3869    0.6379 H   0  0  0  0  0  0  0  0  0  0  0  0
   -4.0489    7.2140   -0.6556 H   0  0  0  0  0  0  0  0  0  0  0  0
   -3.9513    1.2218    0.7042 H   0  0  0  0  0  0  0  0  0  0  0  0
   -4.4833    1.0994    2.6797 H   0  0  0  0  0  0  0  0  0  0  0  0
   -6.3031   -1.0915    0.7777 H   0  0  0  0  0  0  0  0  0  0  0  0
   -6.2143   -1.2151   -0.9867 H   0  0  0  0  0  0  0  0  0  0  0  0
   -3.9991   -2.6302    1.0574 H   0  0  0  0  0  0  0  0  0  0  0  0
   -3.5084   -2.6659   -0.7381 H   0  0  0  0  0  0  0  0  0  0  0  0
   -4.3301   -3.5700    0.0000 H   0  0  0  0  0  0  0  0  0  0  0  0
   -1.1931   -0.1730    1.1080 H   0  0  0  0  0  0  0  0  0  0  0  0
  1  2  1  0  0  0  0
  1 35  1  0  0  0  0
  1 36  1  0  0  0  0
  1 37  1  0  0  0  0
  2  3  1  0  0  0  0
  2 38  1  0  0  0  0
  3  4  2  0  0  0  0
  5  3  1  0  0  0  0
  5  6  1  0  0  0  0
  5 34  1  0  0  0  0
  5 39  1  6  0  0  0
  6  7  1  0  0  0  0
  6 40  1  0  0  0  0
  6 41  1  0  0  0  0
  7  8  2  0  0  0  0
  7  9  1  0  0  0  0
  9 10  1  0  0  0  0
  9 32  1  0  0  0  0
 10 11  1  0  0  0  0
 10 42  1  0  0  0  0
 10 43  1  0  0  0  0
 11 44  1  0  0  0  0
 11 45  1  0  0  0  0
 12 11  1  0  0  0  0
 12 13  1  0  0  0  0
 12 22  1  0  0  0  0
 12 46  1  6  0  0  0
 13 14  2  0  0  0  0
 13 15  1  0  0  0  0
 15 20  2  0  0  0  0
 15 16  1  0  0  0  0
 16 17  2  0  0  0  0
 16 47  1  0  0  0  0
 17 18  1  0  0  0  0
 17 48  1  0  0  0  0
 18 19  2  0  0  0  0
 18 49  1  0  0  0  0
 19 20  1  0  0  0  0
 19 50  1  0  0  0  0
 20 21  1  0  0  0  0
 21 51  1  0  0  0  0
 22 23  2  0  0  0  0
 22 24  1  0  0  0  0
 24 25  1  0  0  0  0
 24 26  1  0  0  0  0
 24 52  1  6  0  0  0
 25 53  1  0  0  0  0
 26 27  2  0  0  0  0
 26 28  1  0  0  0  0
 28 29  1  0  0  0  0
 28 54  1  0  0  0  0
 28 55  1  0  0  0  0
 29 30  1  0  0  0  0
 29 31  2  0  0  0  0
 30 56  1  0  0  0  0
 30 57  1  0  0  0  0
 30 58  1  0  0  0  0
 32 33  2  0  0  0  0
 32 34  1  0  0  0  0
 34 59  1  0  0  0  0
M  END
$$$$
