
 OpenBabel03202621342D

 21 21  0  0  1  0  0  0  0  0999 V2000
    0.2788   -1.7601    0.0000 C   0  0  0  0  0  0  0  0  0  0  0  0
   -0.3090   -0.9511    0.0000 C   0  0  3  0  0  0  0  0  0  0  0  0
   -1.8195   -1.4554    0.0000 C   0  0  0  0  0  0  0  0  0  0  0  0
   -2.2627    0.0228    0.0000 N   0  0  0  0  0  0  0  0  0  0  0  0
   -1.0841    0.8489    0.0000 N   0  0  0  0  0  0  0  0  0  0  0  0
   -0.9857    2.1280    0.0000 C   0  0  0  0  0  0  0  0  0  0  0  0
    0.0319    2.7493   -0.0000 O   0  0  0  0  0  0  0  0  0  0  0  0
    0.0000    0.0000    0.0000 C   0  0  3  0  0  0  0  0  0  0  0  0
    0.9511    0.3090    0.0000 C   0  0  0  0  0  0  0  0  0  0  0  0
   -0.2827   -2.7520    0.0000 H   0  0  0  0  0  0  0  0  0  0  0  0
    1.6855   -1.9447   -0.0000 H   0  0  0  0  0  0  0  0  0  0  0  0
    0.9077   -2.6257    0.0000 H   0  0  0  0  0  0  0  0  0  0  0  0
    0.6241   -1.1726    0.0000 H   0  0  0  0  0  0  0  0  0  0  0  0
   -2.1607   -2.4472   -0.0000 H   0  0  0  0  0  0  0  0  0  0  0  0
   -2.7975   -1.1270    0.0000 H   0  0  0  0  0  0  0  0  0  0  0  0
   -3.1625    0.5950   -0.0000 H   0  0  0  0  0  0  0  0  0  0  0  0
   -1.9805    2.4516   -0.0000 H   0  0  0  0  0  0  0  0  0  0  0  0
   -0.8247   -0.2679   -0.0000 H   0  0  0  0  0  0  0  0  0  0  0  0
    1.8766   -0.3557    0.0000 H   0  0  0  0  0  0  0  0  0  0  0  0
    1.2296    1.3522   -0.0000 H   0  0  0  0  0  0  0  0  0  0  0  0
    1.9687    0.6396    0.0000 H   0  0  0  0  0  0  0  0  0  0  0  0
  1  2  1  0  0  0  0
  1 10  1  0  0  0  0
  1 11  1  0  0  0  0
  1 12  1  0  0  0  0
  2  8  1  0  0  0  0
  2  3  1  0  0  0  0
  2 13  1  0  0  0  0
  3  4  1  0  0  0  0
  3 14  1  0  0  0  0
  3 15  1  0  0  0  0
  4  5  1  0  0  0  0
  4 16  1  0  0  0  0
  5  6  1  0  0  0  0
  5  8  1  0  0  0  0
  6  7  2  0  0  0  0
  6 17  1  0  0  0  0
  8  9  1  0  0  0  0
  8 18  1  0  0  0  0
  9 19  1  0  0  0  0
  9 20  1  0  0  0  0
  9 21  1  0  0  0  0
M  END
$$$$
