
 OpenBabel03202621352D

 25 26  0  0  0  0  0  0  0  0999 V2000
    9.6724   -1.1248    0.2754 O   0  0  0  0  0  0  0  0  0  0  0  0
    8.4471   -1.1073    0.2567 C   0  0  0  0  0  0  0  0  0  0  0  0
    7.5642    0.3416   -0.1733 S   0  0  0  0  0  0  0  0  0  0  0  0
    5.8423   -0.0643    0.0532 C   0  0  0  0  0  0  0  0  0  0  0  0
    5.2923   -1.3288   -0.1838 C   0  0  0  0  0  0  0  0  0  0  0  0
    3.9079   -1.5284   -0.1103 C   0  0  0  0  0  0  0  0  0  0  0  0
    3.0551   -0.4602    0.1713 C   0  0  0  0  0  0  0  0  0  0  0  0
    1.7071   -0.7071    0.0000 O   0  0  0  0  0  0  0  0  0  0  0  0
    1.0000    0.0000    0.0000 C   0  0  0  0  0  0  0  0  0  0  0  0
   -0.2656   -0.8750   -0.5959 C   0  0  0  0  0  0  0  0  0  0  0  0
   -0.2707    0.0272   -1.8595 C   0  0  0  0  0  0  0  0  0  0  0  0
   -1.0958    0.2633   -2.7141 O   0  0  0  0  0  0  0  0  0  0  0  0
    1.1248    0.6159   -1.5565 C   0  0  0  0  0  0  0  0  0  0  0  0
    3.5938    0.7965    0.4531 C   0  0  0  0  0  0  0  0  0  0  0  0
    4.9779    0.9896    0.3858 C   0  0  0  0  0  0  0  0  0  0  0  0
    7.8755   -2.0128    0.5090 H   0  0  0  0  0  0  0  0  0  0  0  0
    5.9066   -2.1719   -0.4838 H   0  0  0  0  0  0  0  0  0  0  0  0
    3.4917   -2.5069   -0.3377 H   0  0  0  0  0  0  0  0  0  0  0  0
    0.2434    0.7566    0.0000 H   0  0  0  0  0  0  0  0  0  0  0  0
   -0.0656   -1.9253   -0.8500 H   0  0  0  0  0  0  0  0  0  0  0  0
   -1.1888   -0.8313   -0.0082 H   0  0  0  0  0  0  0  0  0  0  0  0
    1.8985    0.1936   -2.2106 H   0  0  0  0  0  0  0  0  0  0  0  0
    1.1820    1.7087   -1.6177 H   0  0  0  0  0  0  0  0  0  0  0  0
    2.9565    1.6512    0.6651 H   0  0  0  0  0  0  0  0  0  0  0  0
    5.3718    1.9919    0.5513 H   0  0  0  0  0  0  0  0  0  0  0  0
  1  2  2  0  0  0  0
  2  3  1  0  0  0  0
  2 16  1  0  0  0  0
  3  4  1  0  0  0  0
  4 15  2  0  0  0  0
  4  5  1  0  0  0  0
  5  6  2  0  0  0  0
  5 17  1  0  0  0  0
  6  7  1  0  0  0  0
  6 18  1  0  0  0  0
  7  8  1  0  0  0  0
  7 14  2  0  0  0  0
  8  9  1  0  0  0  0
  9 13  1  0  0  0  0
  9 10  1  0  0  0  0
  9 19  1  0  0  0  0
 10 11  1  0  0  0  0
 10 20  1  0  0  0  0
 10 21  1  0  0  0  0
 11 12  2  0  0  0  0
 11 13  1  0  0  0  0
 13 22  1  0  0  0  0
 13 23  1  0  0  0  0
 14 15  1  0  0  0  0
 14 24  1  0  0  0  0
 15 25  1  0  0  0  0
M  END
$$$$
