
 OpenBabel03202621392D

 56 56  0  0  1  0  0  0  0  0999 V2000
    5.3301    0.2321    0.0000 C   0  0  0  0  0  0  0  0  0  0  0  0
    4.3301    0.2321    0.0000 C   0  0  0  0  0  0  0  0  0  0  0  0
    3.7238    1.3279   -0.0290 O   0  0  0  0  0  0  0  0  0  0  0  0
    3.8301   -0.6340    0.0000 C   0  0  0  0  0  0  0  0  0  0  0  0
    4.3301   -1.5000    0.0000 C   0  0  3  0  0  0  0  0  0  0  0  0
    4.5009   -1.5290    1.6785 O   0  0  0  0  0  0  0  0  0  0  0  0
    4.8301   -2.3660    0.0000 C   0  0  0  0  0  0  0  0  0  0  0  0
    5.9462   -2.6908   -0.7138 C   0  0  0  0  0  0  0  0  0  0  0  0
    6.6295   -4.0254   -0.5665 C   0  0  0  0  0  0  0  0  0  0  0  0
    8.0166   -3.8264   -0.2531 O   0  0  0  0  0  0  0  0  0  0  0  0
    8.8129   -4.9047    0.0128 C   0  0  0  0  0  0  0  0  0  0  0  0
   10.0270   -4.7565    0.1520 O   0  0  0  0  0  0  0  0  0  0  0  0
    8.1089   -6.2673    0.1387 C   0  0  0  0  0  0  0  0  0  0  0  0
    8.9434   -7.3857    0.3887 O   0  0  0  0  0  0  0  0  0  0  0  0
    2.7824   -2.5297   -0.1592 C   0  0  2  0  0  0  0  0  0  0  0  0
    3.0794   -3.9079   -0.5975 O   0  0  0  0  0  0  0  0  0  0  0  0
    1.5616   -2.1076   -1.0679 C   0  0  0  0  0  0  0  0  0  0  0  0
    1.7551   -1.5763   -2.1795 O   0  0  0  0  0  0  0  0  0  0  0  0
    0.1418   -2.5229   -0.6265 C   0  0  2  0  0  0  0  0  0  0  0  0
    0.2343   -3.9779   -0.0960 C   0  0  0  0  0  0  0  0  0  0  0  0
   -1.0254   -4.8148   -0.0766 C   0  0  0  0  0  0  0  0  0  0  0  0
   -0.6048   -6.1563    0.2135 O   0  0  0  0  0  0  0  0  0  0  0  0
   -0.5124   -1.5997    0.4053 C   0  0  0  0  0  0  0  0  0  0  0  0
   -0.8523   -2.0239    1.5154 O   0  0  0  0  0  0  0  0  0  0  0  0
   -0.5988   -0.1262    0.1336 C   0  0  0  0  0  0  0  0  0  0  0  0
    0.5454    0.5948    0.5000 C   0  0  0  0  0  0  0  0  0  0  0  0
    0.6490    1.9652    0.3194 C   0  0  0  0  0  0  0  0  0  0  0  0
   -0.4565    2.6531   -0.1273 C   0  0  0  0  0  0  0  0  0  0  0  0
   -1.6335    1.9437   -0.4175 C   0  0  0  0  0  0  0  0  0  0  0  0
   -1.7527    0.5241   -0.3455 C   0  0  0  0  0  0  0  0  0  0  0  0
   -2.8358   -0.0695   -0.6772 O   0  5  0  0  0  0  0  0  0  0  0  0
    5.5010    0.7061   -1.0103 H   0  0  0  0  0  0  0  0  0  0  0  0
    5.5180    0.9575    0.8421 H   0  0  0  0  0  0  0  0  0  0  0  0
    6.4001    0.2321    0.0000 H   0  0  0  0  0  0  0  0  0  0  0  0
    3.2662   -0.5105   -0.9504 H   0  0  0  0  0  0  0  0  0  0  0  0
    3.0384   -0.5136    0.7638 H   0  0  0  0  0  0  0  0  0  0  0  0
    5.4394   -1.3296    1.8734 H   0  0  0  0  0  0  0  0  0  0  0  0
    4.6755   -3.2284    0.6803 H   0  0  0  0  0  0  0  0  0  0  0  0
    6.3921   -2.0076   -1.4357 H   0  0  0  0  0  0  0  0  0  0  0  0
    6.1628   -4.6041    0.2354 H   0  0  0  0  0  0  0  0  0  0  0  0
    6.5503   -4.5674   -1.5127 H   0  0  0  0  0  0  0  0  0  0  0  0
    7.3984   -6.2159    0.9686 H   0  0  0  0  0  0  0  0  0  0  0  0
    7.5862   -6.4676   -0.8002 H   0  0  0  0  0  0  0  0  0  0  0  0
    8.4668   -8.1807    0.0872 H   0  0  0  0  0  0  0  0  0  0  0  0
    2.3905   -2.6058    0.8704 H   0  0  0  0  0  0  0  0  0  0  0  0
    2.7808   -4.4995    0.1155 H   0  0  0  0  0  0  0  0  0  0  0  0
   -0.4898   -2.5343   -1.5217 H   0  0  0  0  0  0  0  0  0  0  0  0
    0.9197   -4.5445   -0.7314 H   0  0  0  0  0  0  0  0  0  0  0  0
    0.6666   -3.9976    0.9132 H   0  0  0  0  0  0  0  0  0  0  0  0
   -1.5082   -4.8172   -1.0562 H   0  0  0  0  0  0  0  0  0  0  0  0
   -1.7330   -4.4967    0.6975 H   0  0  0  0  0  0  0  0  0  0  0  0
   -1.3603   -6.7316    0.0219 H   0  0  0  0  0  0  0  0  0  0  0  0
    1.3442    0.0722    0.9838 H   0  0  0  0  0  0  0  0  0  0  0  0
    1.5751    2.4811    0.5543 H   0  0  0  0  0  0  0  0  0  0  0  0
   -0.4273    3.7305   -0.2222 H   0  0  0  0  0  0  0  0  0  0  0  0
   -2.5106    2.5227   -0.7106 H   0  0  0  0  0  0  0  0  0  0  0  0
  1  2  1  0  0  0  0
  1 32  1  0  0  0  0
  1 33  1  0  0  0  0
  1 34  1  0  0  0  0
  2  3  2  0  0  0  0
  2  4  1  0  0  0  0
  4  5  1  0  0  0  0
  4 35  1  0  0  0  0
  4 36  1  0  0  0  0
  5  6  1  0  0  0  0
  5  7  1  0  0  0  0
  5 15  1  0  0  0  0
  6 37  1  0  0  0  0
  7  8  2  3  0  0  0
  7 38  1  0  0  0  0
  8  9  1  0  0  0  0
  8 39  1  0  0  0  0
  9 10  1  0  0  0  0
  9 40  1  0  0  0  0
  9 41  1  0  0  0  0
 10 11  1  0  0  0  0
 11 12  2  0  0  0  0
 11 13  1  0  0  0  0
 13 14  1  0  0  0  0
 13 42  1  0  0  0  0
 13 43  1  0  0  0  0
 14 44  1  0  0  0  0
 15 16  1  0  0  0  0
 15 17  1  0  0  0  0
 15 45  1  1  0  0  0
 16 46  1  0  0  0  0
 17 18  2  0  0  0  0
 17 19  1  0  0  0  0
 19 20  1  0  0  0  0
 19 23  1  0  0  0  0
 19 47  1  1  0  0  0
 20 21  1  0  0  0  0
 20 48  1  0  0  0  0
 20 49  1  0  0  0  0
 21 22  1  0  0  0  0
 21 50  1  0  0  0  0
 21 51  1  0  0  0  0
 22 52  1  0  0  0  0
 23 24  2  0  0  0  0
 23 25  1  0  0  0  0
 25 30  2  0  0  0  0
 25 26  1  0  0  0  0
 26 27  2  0  0  0  0
 26 53  1  0  0  0  0
 27 28  1  0  0  0  0
 27 54  1  0  0  0  0
 28 29  2  0  0  0  0
 28 55  1  0  0  0  0
 29 30  1  0  0  0  0
 29 56  1  0  0  0  0
 30 31  1  0  0  0  0
M  CHG  1  31  -1
M  END
$$$$
