
 OpenBabel03202621302D

 16 15  0  0  0  0  0  0  0  0999 V2000
    5.2033   -1.7793   -0.0379 O   0  0  0  0  0  0  0  0  0  0  0  0
    5.0347   -0.5742    0.0558 C   0  0  0  0  0  0  0  0  0  0  0  0
    3.8226    0.0676    0.0182 N   0  0  0  0  0  0  0  0  0  0  0  0
    2.5914   -0.6803   -0.0953 C   0  0  0  0  0  0  0  0  0  0  0  0
    1.3664    0.2241    0.0013 C   0  0  0  0  0  0  0  0  0  0  0  0
    0.0893   -0.6051    0.0646 C   0  0  0  0  0  0  0  0  0  0  0  0
   -1.3471    0.4247    0.4963 S   0  0  0  0  0  0  0  0  0  0  0  0
    5.8715    0.1344    0.1884 H   0  0  0  0  0  0  0  0  0  0  0  0
    3.8018    1.0722    0.1426 H   0  0  0  0  0  0  0  0  0  0  0  0
    2.6055   -1.2202   -1.0499 H   0  0  0  0  0  0  0  0  0  0  0  0
    2.5843   -1.4288    0.7067 H   0  0  0  0  0  0  0  0  0  0  0  0
    1.4599    0.8550    0.8960 H   0  0  0  0  0  0  0  0  0  0  0  0
    1.3410    0.8988   -0.8630 H   0  0  0  0  0  0  0  0  0  0  0  0
    0.1693   -1.3894    0.8242 H   0  0  0  0  0  0  0  0  0  0  0  0
   -0.0993   -1.0907   -0.8983 H   0  0  0  0  0  0  0  0  0  0  0  0
   -0.9375    1.5548   -0.0960 H   0  0  0  0  0  0  0  0  0  0  0  0
  1  2  2  0  0  0  0
  2  3  1  0  0  0  0
  2  8  1  0  0  0  0
  3  4  1  0  0  0  0
  3  9  1  0  0  0  0
  4  5  1  0  0  0  0
  4 10  1  0  0  0  0
  4 11  1  0  0  0  0
  5  6  1  0  0  0  0
  5 12  1  0  0  0  0
  5 13  1  0  0  0  0
  6  7  1  0  0  0  0
  6 14  1  0  0  0  0
  6 15  1  0  0  0  0
  7 16  1  0  0  0  0
M  END
$$$$
