
 OpenBabel03202621322D

 18 18  0  0  0  0  0  0  0  0999 V2000
   -2.5981   -1.5000    0.0000 C   0  0  0  0  0  0  0  0  0  0  0  0
   -1.7321   -2.0000    0.0000 S   0  0  0  0  0  0  0  0  0  0  0  0
   -0.2798   -1.0584    0.0000 C   0  0  0  0  0  0  0  0  0  0  0  0
    0.7797   -1.6791   -0.0000 O   0  0  0  0  0  0  0  0  0  0  0  0
   -0.2494    0.4546   -0.0000 C   0  0  0  0  0  0  0  0  0  0  0  0
   -1.2850    1.3892   -0.0000 C   0  0  0  0  0  0  0  0  0  0  0  0
   -1.0999    2.7225   -0.0000 N   0  0  0  0  0  0  0  0  0  0  0  0
    0.1540    3.1908   -0.0000 N   0  0  0  0  0  0  0  0  0  0  0  0
    1.1915    2.3318   -0.0000 C   0  0  0  0  0  0  0  0  0  0  0  0
    2.4597    2.8571    0.0000 N   0  0  0  0  0  0  0  0  0  0  0  0
    1.0267    0.9695    0.0000 C   0  0  0  0  0  0  0  0  0  0  0  0
   -2.4636   -0.4638    0.0000 H   0  0  0  0  0  0  0  0  0  0  0  0
   -3.3850   -2.2604    0.0000 H   0  0  0  0  0  0  0  0  0  0  0  0
   -3.5247   -0.9650    0.0000 H   0  0  0  0  0  0  0  0  0  0  0  0
   -2.3507    1.2142   -0.0000 H   0  0  0  0  0  0  0  0  0  0  0  0
    3.2720    2.2659   -0.0000 H   0  0  0  0  0  0  0  0  0  0  0  0
    2.5270    3.8670   -0.0000 H   0  0  0  0  0  0  0  0  0  0  0  0
    1.8976    0.3178    0.0000 H   0  0  0  0  0  0  0  0  0  0  0  0
  1  2  1  0  0  0  0
  1 12  1  0  0  0  0
  1 13  1  0  0  0  0
  1 14  1  0  0  0  0
  2  3  1  0  0  0  0
  3  4  2  0  0  0  0
  3  5  1  0  0  0  0
  5 11  2  0  0  0  0
  5  6  1  0  0  0  0
  6  7  2  0  0  0  0
  6 15  1  0  0  0  0
  7  8  1  0  0  0  0
  8  9  2  0  0  0  0
  9 10  1  0  0  0  0
  9 11  1  0  0  0  0
 10 16  1  0  0  0  0
 10 17  1  0  0  0  0
 11 18  1  0  0  0  0
M  END
$$$$
