
 OpenBabel03202621312D

 20 20  0  0  0  0  0  0  0  0999 V2000
   -2.8144   -4.7479   -0.0659 C   0  0  0  0  0  0  0  0  0  0  0  0
   -1.9273   -3.8013    0.2848 C   0  0  0  0  0  0  0  0  0  0  0  0
   -0.7576   -4.2397    0.8099 F   0  0  0  0  0  0  0  0  0  0  0  0
   -2.1538   -2.3126    0.1430 C   0  0  0  0  0  0  0  0  0  0  0  0
   -2.5486   -1.7963    1.3439 F   0  0  0  0  0  0  0  0  0  0  0  0
   -3.1764   -2.0649   -0.7320 F   0  0  0  0  0  0  0  0  0  0  0  0
   -0.9867   -1.6707   -0.3197 O   0  0  0  0  0  0  0  0  0  0  0  0
   -0.8858   -0.2966   -0.2306 C   0  0  0  0  0  0  0  0  0  0  0  0
   -1.9237    0.5540   -0.1509 C   0  0  0  0  0  0  0  0  0  0  0  0
   -1.7356    2.0322   -0.0446 C   0  0  0  0  0  0  0  0  0  0  0  0
   -0.4083    2.5330   -0.2022 O   0  0  0  0  0  0  0  0  0  0  0  0
    0.5935    1.6045   -0.2176 C   0  0  0  0  0  0  0  0  0  0  0  0
    0.4783    0.2627   -0.2219 C   0  0  0  0  0  0  0  0  0  0  0  0
    1.3931   -0.6065   -0.2168 O   0  5  0  0  0  0  0  0  0  0  0  0
   -3.7806   -4.4878   -0.4790 H   0  0  0  0  0  0  0  0  0  0  0  0
   -2.5704   -5.7941    0.0744 H   0  0  0  0  0  0  0  0  0  0  0  0
   -2.9466    0.2058   -0.1596 H   0  0  0  0  0  0  0  0  0  0  0  0
   -2.3537    2.5251   -0.8033 H   0  0  0  0  0  0  0  0  0  0  0  0
   -2.0998    2.3677    0.9332 H   0  0  0  0  0  0  0  0  0  0  0  0
    1.5614    2.0886   -0.2320 H   0  0  0  0  0  0  0  0  0  0  0  0
  1  2  2  0  0  0  0
  1 15  1  0  0  0  0
  1 16  1  0  0  0  0
  2  3  1  0  0  0  0
  2  4  1  0  0  0  0
  4  5  1  0  0  0  0
  4  6  1  0  0  0  0
  4  7  1  0  0  0  0
  7  8  1  0  0  0  0
  8 13  1  0  0  0  0
  8  9  2  0  0  0  0
  9 10  1  0  0  0  0
  9 17  1  0  0  0  0
 10 11  1  0  0  0  0
 10 18  1  0  0  0  0
 10 19  1  0  0  0  0
 11 12  1  0  0  0  0
 12 13  2  0  0  0  0
 12 20  1  0  0  0  0
 13 14  1  0  0  0  0
M  CHG  1  14  -1
M  END
$$$$
