
 OpenBabel03202621312D

 19 19  0  0  0  0  0  0  0  0999 V2000
    2.4522    3.9693   -0.0154 C   0  0  0  0  0  0  0  0  0  0  0  0
    1.1469    3.2990   -1.0720 S   0  0  0  0  0  0  0  0  0  0  0  0
    0.6717    1.9345   -0.0553 C   0  0  0  0  0  0  0  0  0  0  0  0
   -0.2212    2.0563    0.7683 O   0  0  0  0  0  0  0  0  0  0  0  0
    1.5277    0.7054   -0.2648 C   0  0  0  0  0  0  0  0  0  0  0  0
    1.0295   -0.6170    0.2909 C   0  0  0  0  0  0  0  0  0  0  0  0
    2.0345   -1.3441    1.0341 C   0  0  0  0  0  0  0  0  0  0  0  0
    2.8607   -1.9179    1.6149 N   0  0  0  0  0  0  0  0  0  0  0  0
    0.1425   -1.4374   -0.6404 C   0  0  0  0  0  0  0  0  0  0  0  0
   -0.4264   -0.9121    0.6368 C   0  0  0  0  0  0  0  0  0  0  0  0
    2.8471    3.2190    0.6754 H   0  0  0  0  0  0  0  0  0  0  0  0
    2.0675    4.8115    0.5637 H   0  0  0  0  0  0  0  0  0  0  0  0
    3.2758    4.3196   -0.6434 H   0  0  0  0  0  0  0  0  0  0  0  0
    1.7140    0.5788   -1.3390 H   0  0  0  0  0  0  0  0  0  0  0  0
    2.4985    0.9410    0.1927 H   0  0  0  0  0  0  0  0  0  0  0  0
    0.3168   -2.5062   -0.7222 H   0  0  0  0  0  0  0  0  0  0  0  0
   -0.2162   -0.9890   -1.5612 H   0  0  0  0  0  0  0  0  0  0  0  0
   -1.1824   -0.1397    0.5695 H   0  0  0  0  0  0  0  0  0  0  0  0
   -0.6321   -1.6260    1.4306 H   0  0  0  0  0  0  0  0  0  0  0  0
  1  2  1  0  0  0  0
  1 11  1  0  0  0  0
  1 12  1  0  0  0  0
  1 13  1  0  0  0  0
  2  3  1  0  0  0  0
  3  4  2  0  0  0  0
  3  5  1  0  0  0  0
  5  6  1  0  0  0  0
  5 14  1  0  0  0  0
  5 15  1  0  0  0  0
  6 10  1  0  0  0  0
  6  7  1  0  0  0  0
  6  9  1  0  0  0  0
  7  8  3  0  0  0  0
  9 10  1  0  0  0  0
  9 16  1  0  0  0  0
  9 17  1  0  0  0  0
 10 18  1  0  0  0  0
 10 19  1  0  0  0  0
M  END
$$$$
