
 OpenBabel03202621282D

 19 19  0  0  1  0  0  0  0  0999 V2000
    0.8090    1.5878    0.0000 C   0  0  0  0  0  0  0  0  0  0  0  0
    0.8090    0.5878    0.0000 C   0  0  0  0  0  0  0  0  0  0  0  0
    1.6180    0.0000    0.0000 C   0  0  0  0  0  0  0  0  0  0  0  0
    1.3090   -0.9511    0.0000 N   0  0  0  0  0  0  0  0  0  0  0  0
    1.8968   -1.7601    0.0000 C   0  0  0  0  0  0  0  0  0  0  0  0
    2.8913   -1.6555    0.0000 C   0  0  1  0  0  0  0  0  0  0  0  0
    3.4791   -2.4646    0.0000 N   0  0  0  0  0  0  0  0  0  0  0  0
    4.4736   -2.3600    0.0000 C   0  0  0  0  0  0  0  0  0  0  0  0
    5.0614   -3.1691    0.0000 O   0  0  0  0  0  0  0  0  0  0  0  0
    4.8804   -1.4465    0.0000 O   0  0  0  0  0  0  0  0  0  0  0  0
    5.8749   -1.3420    0.0000 C   0  0  0  0  0  0  0  0  0  0  0  0
    6.6839   -0.7542    0.0000 C   0  0  0  0  0  0  0  0  0  0  0  0
    5.7704   -0.3474    0.0000 C   0  0  0  0  0  0  0  0  0  0  0  0
    6.4627   -2.1510    0.0000 C   0  0  0  0  0  0  0  0  0  0  0  0
    3.2981   -0.7420    0.0000 C   0  0  0  0  0  0  0  0  0  0  0  0
    4.2926   -0.6375    0.0000 O   0  0  0  0  0  0  0  0  0  0  0  0
    2.7103    0.0670    0.0000 O   0  0  0  0  0  0  0  0  0  0  0  0
    0.3090   -0.9511    0.0000 N   0  0  0  0  0  0  0  0  0  0  0  0
    0.0000   -0.0000    0.0000 N   0  0  0  0  0  0  0  0  0  0  0  0
  1  2  1  0  0  0  0
  2 19  1  0  0  0  0
  2  3  2  0  0  0  0
  3  4  1  0  0  0  0
  4  5  1  0  0  0  0
  4 18  1  0  0  0  0
  6  5  1  6  0  0  0
  6  7  1  0  0  0  0
  6 15  1  0  0  0  0
  7  8  1  0  0  0  0
  8  9  2  0  0  0  0
  8 10  1  0  0  0  0
 10 11  1  0  0  0  0
 11 12  1  0  0  0  0
 11 13  1  0  0  0  0
 11 14  1  0  0  0  0
 15 16  2  0  0  0  0
 15 17  1  0  0  0  0
 18 19  2  0  0  0  0
M  END
$$$$
