
 OpenBabel03202621322D

 21 22  0  0  0  0  0  0  0  0999 V2000
    3.1922    3.2466   -0.0000 O   0  0  0  0  0  0  0  0  0  0  0  0
    2.3941    2.3137   -0.0000 C   0  0  0  0  0  0  0  0  0  0  0  0
    2.9558    0.6517   -0.0000 S   0  0  0  0  0  0  0  0  0  0  0  0
    1.4327   -0.2611   -0.0000 C   0  0  0  0  0  0  0  0  0  0  0  0
    1.4727   -1.6498    0.0000 C   0  0  0  0  0  0  0  0  0  0  0  0
    0.2708   -2.3647    0.0000 C   0  0  0  0  0  0  0  0  0  0  0  0
   -0.9513   -1.6875   -0.0000 C   0  0  0  0  0  0  0  0  0  0  0  0
   -2.2176   -2.4063   -0.0000 C   0  0  0  0  0  0  0  0  0  0  0  0
   -2.4814   -3.8079   -0.0000 C   0  0  0  0  0  0  0  0  0  0  0  0
   -3.8486   -3.9555   -0.0000 C   0  0  0  0  0  0  0  0  0  0  0  0
   -4.4530   -2.7431   -0.0000 O   0  0  0  0  0  0  0  0  0  0  0  0
   -3.4658   -1.8110   -0.0000 C   0  0  0  0  0  0  0  0  0  0  0  0
   -0.8808   -0.2972   -0.0000 C   0  0  0  0  0  0  0  0  0  0  0  0
    0.2707    0.4210   -0.0000 N   0  0  0  0  0  0  0  0  0  0  0  0
    1.3130    2.5141   -0.0000 H   0  0  0  0  0  0  0  0  0  0  0  0
    2.4190   -2.1830    0.0000 H   0  0  0  0  0  0  0  0  0  0  0  0
    0.3145   -3.4502    0.0000 H   0  0  0  0  0  0  0  0  0  0  0  0
   -1.7693   -4.6209   -0.0000 H   0  0  0  0  0  0  0  0  0  0  0  0
   -4.5117   -4.8091   -0.0000 H   0  0  0  0  0  0  0  0  0  0  0  0
   -3.8185   -0.7890    0.0000 H   0  0  0  0  0  0  0  0  0  0  0  0
   -1.7720    0.3238   -0.0000 H   0  0  0  0  0  0  0  0  0  0  0  0
  1  2  2  0  0  0  0
  2  3  1  0  0  0  0
  2 15  1  0  0  0  0
  3  4  1  0  0  0  0
  4 14  2  0  0  0  0
  4  5  1  0  0  0  0
  5  6  2  0  0  0  0
  5 16  1  0  0  0  0
  6  7  1  0  0  0  0
  6 17  1  0  0  0  0
  7  8  1  0  0  0  0
  7 13  2  0  0  0  0
  8 12  2  0  0  0  0
  8  9  1  0  0  0  0
  9 10  2  0  0  0  0
  9 18  1  0  0  0  0
 10 11  1  0  0  0  0
 10 19  1  0  0  0  0
 11 12  1  0  0  0  0
 12 20  1  0  0  0  0
 13 14  1  0  0  0  0
 13 21  1  0  0  0  0
M  END
$$$$
