
 OpenBabel03202621332D

 23 24  0  0  0  0  0  0  0  0999 V2000
   -3.4641   -2.0000    0.0000 C   0  0  0  0  0  0  0  0  0  0  0  0
   -2.5981   -1.5000    0.0000 S   0  0  0  0  0  0  0  0  0  0  0  0
   -1.1918   -2.3830    0.0000 C   0  0  0  0  0  0  0  0  0  0  0  0
   -0.8646   -4.0145    0.0000 S   0  0  0  0  0  0  0  0  0  0  0  0
   -0.2494   -1.4356    0.0000 N   0  0  0  0  0  0  0  0  0  0  0  0
   -0.4123   -0.0049    0.0000 C   0  0  0  0  0  0  0  0  0  0  0  0
   -1.5511    0.9108    0.0000 C   0  0  0  0  0  0  0  0  0  0  0  0
   -1.4984    2.2822    0.0000 C   0  0  0  0  0  0  0  0  0  0  0  0
   -0.2522    2.8543    0.0000 C   0  0  0  0  0  0  0  0  0  0  0  0
    0.8648    1.9883   -0.0000 C   0  0  0  0  0  0  0  0  0  0  0  0
    2.2008    2.2012    0.0000 N   0  0  0  0  0  0  0  0  0  0  0  0
    3.0055    1.1063    0.0000 N   0  0  0  0  0  0  0  0  0  0  0  0
    2.1115    0.1058   -0.0000 C   0  0  0  0  0  0  0  0  0  0  0  0
    0.7990    0.6248   -0.0000 C   0  0  0  0  0  0  0  0  0  0  0  0
   -4.2553   -1.2434   -0.0000 H   0  0  0  0  0  0  0  0  0  0  0  0
   -3.3288   -3.0836   -0.0000 H   0  0  0  0  0  0  0  0  0  0  0  0
   -4.3907   -2.5350    0.0000 H   0  0  0  0  0  0  0  0  0  0  0  0
    0.6654   -1.8632    0.0000 H   0  0  0  0  0  0  0  0  0  0  0  0
   -2.6116    0.6684    0.0000 H   0  0  0  0  0  0  0  0  0  0  0  0
   -2.4401    2.8345    0.0000 H   0  0  0  0  0  0  0  0  0  0  0  0
   -0.1690    3.9229    0.0000 H   0  0  0  0  0  0  0  0  0  0  0  0
    2.6638    3.0924    0.0000 H   0  0  0  0  0  0  0  0  0  0  0  0
    2.4503   -0.9192   -0.0000 H   0  0  0  0  0  0  0  0  0  0  0  0
  1  2  1  0  0  0  0
  1 15  1  0  0  0  0
  1 16  1  0  0  0  0
  1 17  1  0  0  0  0
  2  3  1  0  0  0  0
  3  4  2  0  0  0  0
  3  5  1  0  0  0  0
  5  6  1  0  0  0  0
  5 18  1  0  0  0  0
  6 14  2  0  0  0  0
  6  7  1  0  0  0  0
  7  8  2  0  0  0  0
  7 19  1  0  0  0  0
  8  9  1  0  0  0  0
  8 20  1  0  0  0  0
  9 10  2  0  0  0  0
  9 21  1  0  0  0  0
 10 14  1  0  0  0  0
 10 11  1  0  0  0  0
 11 12  1  0  0  0  0
 11 22  1  0  0  0  0
 12 13  2  0  0  0  0
 13 14  1  0  0  0  0
 13 23  1  0  0  0  0
M  END
$$$$
