
 OpenBabel03202621302D

 39 40  0  0  1  0  0  0  0  0999 V2000
   -0.0933   -1.7796    0.0000 C   0  0  0  0  0  0  0  0  0  0  0  0
   -0.5000   -0.8660    0.0000 C   0  0  0  0  0  0  0  0  0  0  0  0
   -1.2037   -0.3604   -1.0799 C   0  0  0  0  0  0  0  0  0  0  0  0
   -1.0600    1.0189   -0.9461 N   0  0  0  0  0  0  0  0  0  0  0  0
   -2.1476    1.8328   -0.4848 C   0  0  0  0  0  0  0  0  0  0  0  0
   -3.2317    0.8886   -0.0730 C   0  0  0  0  0  0  0  0  0  0  0  0
   -4.3188    1.5640    0.4736 O   0  0  0  0  0  0  0  0  0  0  0  0
   -5.3518    0.6070    0.6645 C   0  0  2  0  0  0  0  0  0  0  0  0
   -5.3233   -0.5474   -0.1889 O   0  0  0  0  0  0  0  0  0  0  0  0
   -6.2266   -1.5430    0.3208 C   0  0  1  0  0  0  0  0  0  0  0  0
   -5.9653   -2.9484   -0.2891 C   0  0  0  0  0  0  0  0  0  0  0  0
   -7.1054   -3.7601   -0.5207 O   0  0  0  0  0  0  0  0  0  0  0  0
   -7.6464   -0.9282    0.4080 C   0  0  1  0  0  0  0  0  0  0  0  0
   -8.6381   -1.6933   -0.2799 O   0  0  0  0  0  0  0  0  0  0  0  0
   -7.7358    0.5487   -0.0583 C   0  0  1  0  0  0  0  0  0  0  0  0
   -8.9558    1.1349    0.4420 O   0  0  0  0  0  0  0  0  0  0  0  0
   -6.5761    1.4265    0.4302 C   0  0  2  0  0  0  0  0  0  0  0  0
   -6.3612    2.4629   -0.5658 O   0  0  0  0  0  0  0  0  0  0  0  0
    0.0852    1.2480   -0.2933 N   0  0  0  0  0  0  0  0  0  0  0  0
    0.1821    0.2337    0.5450 N   0  0  0  0  0  0  0  0  0  0  0  0
   -0.7673   -2.2513    0.7533 H   0  0  0  0  0  0  0  0  0  0  0  0
    0.9024   -1.6242    0.4863 H   0  0  0  0  0  0  0  0  0  0  0  0
    0.3419   -2.7571    0.0000 H   0  0  0  0  0  0  0  0  0  0  0  0
   -1.8621   -0.8313   -1.7986 H   0  0  0  0  0  0  0  0  0  0  0  0
   -1.8184    2.4251    0.3723 H   0  0  0  0  0  0  0  0  0  0  0  0
   -2.4509    2.5166   -1.2962 H   0  0  0  0  0  0  0  0  0  0  0  0
   -2.8899    0.1529    0.6690 H   0  0  0  0  0  0  0  0  0  0  0  0
   -3.5516    0.3828   -0.9912 H   0  0  0  0  0  0  0  0  0  0  0  0
   -5.2869    0.2684    1.7111 H   0  0  0  0  0  0  0  0  0  0  0  0
   -5.8994   -1.6874    1.3561 H   0  0  0  0  0  0  0  0  0  0  0  0
   -5.3405   -2.9278   -1.1895 H   0  0  0  0  0  0  0  0  0  0  0  0
   -5.3720   -3.5123    0.4450 H   0  0  0  0  0  0  0  0  0  0  0  0
   -7.8974   -3.1823   -0.5054 H   0  0  0  0  0  0  0  0  0  0  0  0
   -7.9388   -0.9752    1.4652 H   0  0  0  0  0  0  0  0  0  0  0  0
   -9.4607   -1.1639   -0.2015 H   0  0  0  0  0  0  0  0  0  0  0  0
   -7.8201    0.5882   -1.1491 H   0  0  0  0  0  0  0  0  0  0  0  0
   -8.8472    2.0985    0.3198 H   0  0  0  0  0  0  0  0  0  0  0  0
   -6.8265    1.9805    1.3404 H   0  0  0  0  0  0  0  0  0  0  0  0
   -5.4099    2.7339   -0.4308 H   0  0  0  0  0  0  0  0  0  0  0  0
  1  2  1  0  0  0  0
  1 21  1  0  0  0  0
  1 22  1  0  0  0  0
  1 23  1  0  0  0  0
  2 20  1  0  0  0  0
  2  3  2  0  0  0  0
  3  4  1  0  0  0  0
  3 24  1  0  0  0  0
  4  5  1  0  0  0  0
  4 19  1  0  0  0  0
  5  6  1  0  0  0  0
  5 25  1  0  0  0  0
  5 26  1  0  0  0  0
  6  7  1  0  0  0  0
  6 27  1  0  0  0  0
  6 28  1  0  0  0  0
  8  7  1  0  0  0  0
  8  9  1  0  0  0  0
  8 17  1  0  0  0  0
  8 29  1  1  0  0  0
  9 10  1  0  0  0  0
 10 11  1  0  0  0  0
 10 13  1  0  0  0  0
 10 30  1  6  0  0  0
 11 12  1  0  0  0  0
 11 31  1  0  0  0  0
 11 32  1  0  0  0  0
 12 33  1  0  0  0  0
 13 14  1  0  0  0  0
 13 15  1  0  0  0  0
 13 34  1  6  0  0  0
 14 35  1  0  0  0  0
 15 16  1  0  0  0  0
 15 17  1  0  0  0  0
 15 36  1  6  0  0  0
 16 37  1  0  0  0  0
 17 18  1  0  0  0  0
 17 38  1  1  0  0  0
 18 39  1  0  0  0  0
 19 20  2  0  0  0  0
M  END
$$$$
