
 OpenBabel03202621322D

 15 15  0  0  1  0  0  0  0  0999 V2000
    2.4660    0.4490    0.1753 N   0  0  0  0  0  0  0  0  0  0  0  0
    1.1898   -0.0243   -0.3541 C   0  0  2  0  0  0  0  0  0  0  0  0
    0.4642   -1.1320    0.3455 C   0  0  0  0  0  0  0  0  0  0  0  0
   -0.0786    0.2675    0.4128 C   0  0  1  0  0  0  0  0  0  0  0  0
   -1.2446    0.6802   -0.2949 N   0  0  0  0  0  0  0  0  0  0  0  0
   -2.4780    0.1072   -0.1616 C   0  0  0  0  0  0  0  0  0  0  0  0
   -3.4738    0.5206   -0.7373 O   0  0  0  0  0  0  0  0  0  0  0  0
    3.2401   -0.0880   -0.2167 H   0  0  0  0  0  0  0  0  0  0  0  0
    2.6325    1.4171   -0.1002 H   0  0  0  0  0  0  0  0  0  0  0  0
    1.1221   -0.0238   -1.4407 H   0  0  0  0  0  0  0  0  0  0  0  0
    0.9019   -1.5451    1.2475 H   0  0  0  0  0  0  0  0  0  0  0  0
   -0.0513   -1.8631   -0.2657 H   0  0  0  0  0  0  0  0  0  0  0  0
    0.0289    0.7802    1.3665 H   0  0  0  0  0  0  0  0  0  0  0  0
   -1.2147    1.5129   -0.8722 H   0  0  0  0  0  0  0  0  0  0  0  0
   -2.4890   -0.7683    0.5091 H   0  0  0  0  0  0  0  0  0  0  0  0
  1  8  1  0  0  0  0
  1  9  1  0  0  0  0
  2  1  1  0  0  0  0
  2  3  1  0  0  0  0
  2  4  1  0  0  0  0
  2 10  1  1  0  0  0
  3  4  1  0  0  0  0
  3 11  1  0  0  0  0
  3 12  1  0  0  0  0
  4  5  1  0  0  0  0
  4 13  1  6  0  0  0
  5  6  1  0  0  0  0
  5 14  1  0  0  0  0
  6  7  2  0  0  0  0
  6 15  1  0  0  0  0
M  END
$$$$
