
 OpenBabel03202621372D

 23 24  0  0  1  0  0  0  0  0999 V2000
   -3.0129   -0.8570    0.5335 O   0  0  0  0  0  0  0  0  0  0  0  0
   -2.4290   -1.5573   -0.2788 C   0  0  0  0  0  0  0  0  0  0  0  0
   -1.0948   -1.5974   -0.4980 O   0  0  0  0  0  0  0  0  0  0  0  0
   -0.3228   -0.7070    0.3293 C   0  0  2  0  0  0  0  0  0  0  0  0
   -0.1009    0.7259   -0.2066 C   0  0  0  0  0  0  0  0  0  0  0  0
    1.4159    0.6377    0.0480 C   0  0  0  0  0  0  0  0  0  0  0  0
    1.1800   -0.8551    0.1276 C   0  0  0  0  0  0  0  0  0  0  0  0
    1.9944   -1.9338    0.0670 C   0  0  0  0  0  0  0  0  0  0  0  0
    3.4871   -2.0959   -0.1031 C   0  0  0  0  0  0  0  0  0  0  0  0
    3.2404   -3.5918    0.1533 C   0  0  0  0  0  0  0  0  0  0  0  0
    1.7152   -3.4191    0.1270 C   0  0  0  0  0  0  0  0  0  0  0  0
   -2.9252   -2.2706   -0.9532 H   0  0  0  0  0  0  0  0  0  0  0  0
   -0.6210   -0.7550    1.3845 H   0  0  0  0  0  0  0  0  0  0  0  0
   -0.3657    0.8564   -1.2644 H   0  0  0  0  0  0  0  0  0  0  0  0
   -0.6100    1.5117    0.3624 H   0  0  0  0  0  0  0  0  0  0  0  0
    2.0305    1.0010   -0.7812 H   0  0  0  0  0  0  0  0  0  0  0  0
    1.7512    1.1135    0.9748 H   0  0  0  0  0  0  0  0  0  0  0  0
    4.1180   -1.6137    0.6505 H   0  0  0  0  0  0  0  0  0  0  0  0
    3.8828   -1.8656   -1.0962 H   0  0  0  0  0  0  0  0  0  0  0  0
    3.6316   -4.2534   -0.6279 H   0  0  0  0  0  0  0  0  0  0  0  0
    3.6260   -3.9464    1.1170 H   0  0  0  0  0  0  0  0  0  0  0  0
    1.2043   -3.7842    1.0234 H   0  0  0  0  0  0  0  0  0  0  0  0
    1.2270   -3.8453   -0.7555 H   0  0  0  0  0  0  0  0  0  0  0  0
  1  2  2  0  0  0  0
  2  3  1  0  0  0  0
  2 12  1  0  0  0  0
  4  3  1  0  0  0  0
  4  5  1  0  0  0  0
  4  7  1  0  0  0  0
  4 13  1  1  0  0  0
  5  6  1  0  0  0  0
  5 14  1  0  0  0  0
  5 15  1  0  0  0  0
  6  7  1  0  0  0  0
  6 16  1  0  0  0  0
  6 17  1  0  0  0  0
  7  8  2  0  0  0  0
  8 11  1  0  0  0  0
  8  9  1  0  0  0  0
  9 10  1  0  0  0  0
  9 18  1  0  0  0  0
  9 19  1  0  0  0  0
 10 11  1  0  0  0  0
 10 20  1  0  0  0  0
 10 21  1  0  0  0  0
 11 22  1  0  0  0  0
 11 23  1  0  0  0  0
M  END
$$$$
