
 OpenBabel03202621302D

 17 16  0  0  0  0  0  0  0  0999 V2000
    4.3301   -1.5000    0.0000 C   0  0  0  0  0  0  0  0  0  0  0  0
    4.3301   -0.5000    0.0000 O   0  0  0  0  0  0  0  0  0  0  0  0
    4.1413    0.7820    0.0000 C   0  0  0  0  0  0  0  0  0  0  0  0
    2.8516    0.5669   -0.0000 N   0  0  0  0  0  0  0  0  0  0  0  0
    1.7518    1.1363   -0.0000 C   0  0  0  0  0  0  0  0  0  0  0  0
    1.4190    2.3032    0.0000 O   0  0  0  0  0  0  0  0  0  0  0  0
    0.8660   -0.5000    0.0000 S   0  0  0  0  0  0  0  0  0  0  0  0
    0.0000    0.0000    0.0000 C   0  0  0  0  0  0  0  0  0  0  0  0
    3.3171   -1.9115   -0.0000 H   0  0  0  0  0  0  0  0  0  0  0  0
    5.3843   -1.7946   -0.0000 H   0  0  0  0  0  0  0  0  0  0  0  0
    4.3301   -2.5700    0.0000 H   0  0  0  0  0  0  0  0  0  0  0  0
    5.1615    1.1703   -0.0000 H   0  0  0  0  0  0  0  0  0  0  0  0
    4.0573    1.8843    0.0000 H   0  0  0  0  0  0  0  0  0  0  0  0
    2.6381   -0.4065    0.0000 H   0  0  0  0  0  0  0  0  0  0  0  0
   -0.0958    1.0871    0.0000 H   0  0  0  0  0  0  0  0  0  0  0  0
   -0.7712   -0.7825    0.0000 H   0  0  0  0  0  0  0  0  0  0  0  0
   -0.9266    0.5350    0.0000 H   0  0  0  0  0  0  0  0  0  0  0  0
  1  2  1  0  0  0  0
  1  9  1  0  0  0  0
  1 10  1  0  0  0  0
  1 11  1  0  0  0  0
  2  3  1  0  0  0  0
  3  4  1  0  0  0  0
  3 12  1  0  0  0  0
  3 13  1  0  0  0  0
  4  5  1  0  0  0  0
  4 14  1  0  0  0  0
  5  6  2  0  0  0  0
  5  7  1  0  0  0  0
  7  8  1  0  0  0  0
  8 15  1  0  0  0  0
  8 16  1  0  0  0  0
  8 17  1  0  0  0  0
M  END
$$$$
