
 OpenBabel03202621372D

 58 59  0  0  1  0  0  0  0  0999 V2000
    2.5981    5.5000    0.0000 C   0  0  0  0  0  0  0  0  0  0  0  0
    1.7321    6.0000    0.0000 C   0  0  0  0  0  0  0  0  0  0  0  0
    1.2322    6.6930   -0.8990 O   0  0  0  0  0  0  0  0  0  0  0  0
    1.0183    6.0095    1.3896 C   0  0  0  0  0  0  0  0  0  0  0  0
    0.2482    4.6841    1.5073 C   0  0  0  0  0  0  0  0  0  0  0  0
   -0.3003    4.3738    2.5634 O   0  0  0  0  0  0  0  0  0  0  0  0
    0.0000    4.0000    0.0000 C   0  0  2  0  0  0  0  0  0  0  0  0
    1.0635    4.0037   -1.0982 O   0  0  0  0  0  0  0  0  0  0  0  0
    0.0000    3.0000    0.0000 C   0  0  0  0  0  0  0  0  0  0  0  0
    0.8303    2.6178    0.8892 O   0  0  0  0  0  0  0  0  0  0  0  0
   -0.2115    2.0695   -1.1605 C   0  0  2  0  0  0  0  0  0  0  0  0
   -1.0865    2.9390   -2.3702 C   0  0  0  0  0  0  0  0  0  0  0  0
   -1.6054    4.4916   -2.1245 C   0  0  0  0  0  0  0  0  0  0  0  0
   -2.7725    4.8659   -2.8532 O   0  0  0  0  0  0  0  0  0  0  0  0
   -0.4069    0.7832   -0.2130 C   0  0  3  0  0  0  0  0  0  0  0  0
   -1.4910    0.9734    0.8157 N   0  0  0  0  0  0  0  0  0  0  0  0
   -2.5981    1.5000    0.0000 C   0  0  1  0  0  0  0  0  0  0  0  0
   -4.1528    0.8243    0.0899 C   0  0  0  0  0  0  0  0  0  0  0  0
   -5.3044    1.6475   -0.0080 O   0  0  0  0  0  0  0  0  0  0  0  0
   -5.0953    2.7600    0.8173 C   0  0  0  0  0  0  0  0  0  0  0  0
   -3.9050    3.4425    0.1983 C   0  0  2  0  0  0  0  0  0  0  0  0
   -3.5790    4.6559    0.8858 O   0  0  0  0  0  0  0  0  0  0  0  0
   -2.5981    2.5000    0.0000 C   0  0  0  0  0  0  0  0  0  0  0  0
    0.6576   -0.3213   -0.2981 C   0  0  0  0  0  0  0  0  0  0  0  0
    1.9591   -0.0351    0.2696 C   0  0  0  0  0  0  0  0  0  0  0  0
    3.0021   -0.9564    0.2601 C   0  0  0  0  0  0  0  0  0  0  0  0
    2.7551   -2.1558   -0.3278 C   0  0  0  0  0  0  0  0  0  0  0  0
    1.4853   -2.4330   -0.8910 C   0  0  0  0  0  0  0  0  0  0  0  0
    0.3900   -1.5567   -0.9030 C   0  0  0  0  0  0  0  0  0  0  0  0
   -0.7288   -1.8691   -1.4172 O   0  5  0  0  0  0  0  0  0  0  0  0
    2.8195    5.4923   -1.0990 H   0  0  0  0  0  0  0  0  0  0  0  0
    3.2156    6.3305    0.4256 H   0  0  0  0  0  0  0  0  0  0  0  0
    3.5247    4.9650    0.0000 H   0  0  0  0  0  0  0  0  0  0  0  0
    0.2997    6.8365    1.4149 H   0  0  0  0  0  0  0  0  0  0  0  0
    1.7293    6.1195    2.2146 H   0  0  0  0  0  0  0  0  0  0  0  0
    0.0000    5.0700    0.0000 H   0  0  0  0  0  0  0  0  0  0  0  0
    0.8567    4.6889   -1.7599 H   0  0  0  0  0  0  0  0  0  0  0  0
    0.7296    1.8709   -1.6926 H   0  0  0  0  0  0  0  0  0  0  0  0
   -0.3825    3.0647   -3.2028 H   0  0  0  0  0  0  0  0  0  0  0  0
   -1.9001    2.3331   -2.7863 H   0  0  0  0  0  0  0  0  0  0  0  0
   -0.8415    5.2227   -2.3994 H   0  0  0  0  0  0  0  0  0  0  0  0
   -1.8691    4.7161   -1.0865 H   0  0  0  0  0  0  0  0  0  0  0  0
   -3.0479    5.7430   -2.5021 H   0  0  0  0  0  0  0  0  0  0  0  0
    0.1230    0.9475    0.7166 H   0  0  0  0  0  0  0  0  0  0  0  0
   -1.6284    0.0536    1.2617 H   0  0  0  0  0  0  0  0  0  0  0  0
   -2.5981    0.4300    0.0000 H   0  0  0  0  0  0  0  0  0  0  0  0
   -4.2650    0.0963   -0.7334 H   0  0  0  0  0  0  0  0  0  0  0  0
   -4.2486    0.2719    1.0391 H   0  0  0  0  0  0  0  0  0  0  0  0
   -5.9846    3.3982    0.7809 H   0  0  0  0  0  0  0  0  0  0  0  0
   -4.9426    2.4673    1.8616 H   0  0  0  0  0  0  0  0  0  0  0  0
   -4.2223    3.7631   -0.8060 H   0  0  0  0  0  0  0  0  0  0  0  0
   -4.4026    5.1705    0.9545 H   0  0  0  0  0  0  0  0  0  0  0  0
   -2.0184    3.0544    0.7368 H   0  0  0  0  0  0  0  0  0  0  0  0
   -2.4868    2.8366   -0.9851 H   0  0  0  0  0  0  0  0  0  0  0  0
    2.1661    0.9058    0.7769 H   0  0  0  0  0  0  0  0  0  0  0  0
    3.9475   -0.7036    0.7237 H   0  0  0  0  0  0  0  0  0  0  0  0
    3.5437   -2.9205   -0.3694 H   0  0  0  0  0  0  0  0  0  0  0  0
    1.3520   -3.4173   -1.3419 H   0  0  0  0  0  0  0  0  0  0  0  0
  1  2  1  0  0  0  0
  1 31  1  0  0  0  0
  1 32  1  0  0  0  0
  1 33  1  0  0  0  0
  2  3  2  0  0  0  0
  2  4  1  0  0  0  0
  4  5  1  0  0  0  0
  4 34  1  0  0  0  0
  4 35  1  0  0  0  0
  5  6  2  0  0  0  0
  5  7  1  0  0  0  0
  7  8  1  0  0  0  0
  7  9  1  0  0  0  0
  7 36  1  1  0  0  0
  8 37  1  0  0  0  0
  9 10  2  0  0  0  0
  9 11  1  0  0  0  0
 11 12  1  0  0  0  0
 11 15  1  0  0  0  0
 11 38  1  6  0  0  0
 12 13  1  0  0  0  0
 12 39  1  0  0  0  0
 12 40  1  0  0  0  0
 13 14  1  0  0  0  0
 13 41  1  0  0  0  0
 13 42  1  0  0  0  0
 14 43  1  0  0  0  0
 15 16  1  0  0  0  0
 15 24  1  0  0  0  0
 15 44  1  0  0  0  0
 16 45  1  0  0  0  0
 17 16  1  0  0  0  0
 17 18  1  0  0  0  0
 17 23  1  0  0  0  0
 17 46  1  6  0  0  0
 18 19  1  0  0  0  0
 18 47  1  0  0  0  0
 18 48  1  0  0  0  0
 19 20  1  0  0  0  0
 20 21  1  0  0  0  0
 20 49  1  0  0  0  0
 20 50  1  0  0  0  0
 21 22  1  0  0  0  0
 21 23  1  0  0  0  0
 21 51  1  1  0  0  0
 22 52  1  0  0  0  0
 23 53  1  0  0  0  0
 23 54  1  0  0  0  0
 24 29  2  0  0  0  0
 24 25  1  0  0  0  0
 25 26  2  0  0  0  0
 25 55  1  0  0  0  0
 26 27  1  0  0  0  0
 26 56  1  0  0  0  0
 27 28  2  0  0  0  0
 27 57  1  0  0  0  0
 28 29  1  0  0  0  0
 28 58  1  0  0  0  0
 29 30  1  0  0  0  0
M  CHG  1  30  -1
M  END
$$$$
