
 OpenBabel03202621372D

 29 30  0  0  1  0  0  0  0  0999 V2000
   -4.5777   -1.6536   -0.7472 O   0  5  0  0  0  0  0  0  0  0  0  0
   -4.9645   -0.5803   -0.2017 C   0  0  0  0  0  0  0  0  0  0  0  0
   -6.2269   -0.1586    0.0191 C   0  0  0  0  0  0  0  0  0  0  0  0
   -6.6177    1.0283    0.5779 O   0  0  0  0  0  0  0  0  0  0  0  0
   -5.5946    2.0188    0.6920 C   0  0  0  0  0  0  0  0  0  0  0  0
   -4.1827    1.5287    0.6987 C   0  0  0  0  0  0  0  0  0  0  0  0
   -3.8775    0.2932    0.2707 C   0  0  0  0  0  0  0  0  0  0  0  0
   -2.6167   -0.2359    0.1908 O   0  0  0  0  0  0  0  0  0  0  0  0
   -1.3979    0.4895    0.2845 C   0  0  2  0  0  0  0  0  0  0  0  0
   -1.2858    1.5472   -0.8411 C   0  0  0  0  0  0  0  0  0  0  0  0
   -1.7959    1.0942   -2.0947 O   0  0  0  0  0  0  0  0  0  0  0  0
   -0.2565   -0.5258    0.2107 C   0  0  0  0  0  0  0  0  0  0  0  0
   -0.5071   -1.8461   -0.2125 C   0  0  0  0  0  0  0  0  0  0  0  0
    0.5181   -2.7817   -0.2866 C   0  0  0  0  0  0  0  0  0  0  0  0
    1.7899   -2.3729    0.0511 C   0  0  0  0  0  0  0  0  0  0  0  0
    2.0896   -1.1266    0.4707 N   0  0  0  0  0  0  0  0  0  0  0  0
    1.0672   -0.2326    0.5544 C   0  0  0  0  0  0  0  0  0  0  0  0
    1.5722    1.4734    1.2471 Br  0  0  0  0  0  0  0  0  0  0  0  0
   -7.0838   -0.7691   -0.2281 H   0  0  0  0  0  0  0  0  0  0  0  0
   -5.7883    2.5600    1.6242 H   0  0  0  0  0  0  0  0  0  0  0  0
   -5.7250    2.7353   -0.1282 H   0  0  0  0  0  0  0  0  0  0  0  0
   -3.4286    2.2179    1.0435 H   0  0  0  0  0  0  0  0  0  0  0  0
   -1.3556    0.9654    1.2738 H   0  0  0  0  0  0  0  0  0  0  0  0
   -0.2558    1.8718   -1.0123 H   0  0  0  0  0  0  0  0  0  0  0  0
   -1.8460    2.4473   -0.5711 H   0  0  0  0  0  0  0  0  0  0  0  0
   -2.5661    0.5162   -1.8831 H   0  0  0  0  0  0  0  0  0  0  0  0
   -1.5186   -2.1619   -0.4797 H   0  0  0  0  0  0  0  0  0  0  0  0
    0.3131   -3.7990   -0.6001 H   0  0  0  0  0  0  0  0  0  0  0  0
    2.6283   -3.0609   -0.0020 H   0  0  0  0  0  0  0  0  0  0  0  0
  1  2  1  0  0  0  0
  2  7  1  0  0  0  0
  2  3  2  0  0  0  0
  3  4  1  0  0  0  0
  3 19  1  0  0  0  0
  4  5  1  0  0  0  0
  5  6  1  0  0  0  0
  5 20  1  0  0  0  0
  5 21  1  0  0  0  0
  6  7  2  0  0  0  0
  6 22  1  0  0  0  0
  7  8  1  0  0  0  0
  8  9  1  0  0  0  0
  9 10  1  0  0  0  0
  9 12  1  0  0  0  0
  9 23  1  1  0  0  0
 10 11  1  0  0  0  0
 10 24  1  0  0  0  0
 10 25  1  0  0  0  0
 11 26  1  0  0  0  0
 12 17  2  0  0  0  0
 12 13  1  0  0  0  0
 13 14  2  0  0  0  0
 13 27  1  0  0  0  0
 14 15  1  0  0  0  0
 14 28  1  0  0  0  0
 15 16  2  0  0  0  0
 15 29  1  0  0  0  0
 16 17  1  0  0  0  0
 17 18  1  0  0  0  0
M  CHG  1   1  -1
M  END
$$$$
