
 OpenBabel03202621312D

 17 17  0  0  0  0  0  0  0  0999 V2000
   -2.5981   -1.5000    0.0000 C   0  0  0  0  0  0  0  0  0  0  0  0
   -1.7321   -2.0000    0.0000 S   0  0  0  0  0  0  0  0  0  0  0  0
   -0.2627   -1.1124    0.2707 C   0  0  0  0  0  0  0  0  0  0  0  0
    0.7551   -1.7491    0.5221 O   0  0  0  0  0  0  0  0  0  0  0  0
   -0.1565    0.3682    0.1621 C   0  0  0  0  0  0  0  0  0  0  0  0
   -1.2124    1.2826    0.1969 C   0  0  0  0  0  0  0  0  0  0  0  0
   -0.9515    2.6518    0.0964 C   0  0  0  0  0  0  0  0  0  0  0  0
    0.3613    3.0716   -0.0292 C   0  0  0  0  0  0  0  0  0  0  0  0
    1.4084    2.2252   -0.0608 N   0  0  0  0  0  0  0  0  0  0  0  0
    1.1275    0.9001    0.0398 C   0  0  0  0  0  0  0  0  0  0  0  0
   -2.6868   -1.2989   -1.0862 H   0  0  0  0  0  0  0  0  0  0  0  0
   -3.2791   -2.3365    0.2462 H   0  0  0  0  0  0  0  0  0  0  0  0
   -3.5247   -0.9650    0.0000 H   0  0  0  0  0  0  0  0  0  0  0  0
   -2.2443    0.9791    0.3201 H   0  0  0  0  0  0  0  0  0  0  0  0
   -1.7576    3.3771    0.1247 H   0  0  0  0  0  0  0  0  0  0  0  0
    0.6124    4.1262   -0.1057 H   0  0  0  0  0  0  0  0  0  0  0  0
    2.0079    0.2595    0.0149 H   0  0  0  0  0  0  0  0  0  0  0  0
  1  2  1  0  0  0  0
  1 11  1  0  0  0  0
  1 12  1  0  0  0  0
  1 13  1  0  0  0  0
  2  3  1  0  0  0  0
  3  4  2  0  0  0  0
  3  5  1  0  0  0  0
  5 10  2  0  0  0  0
  5  6  1  0  0  0  0
  6  7  2  0  0  0  0
  6 14  1  0  0  0  0
  7  8  1  0  0  0  0
  7 15  1  0  0  0  0
  8  9  2  0  0  0  0
  8 16  1  0  0  0  0
  9 10  1  0  0  0  0
 10 17  1  0  0  0  0
M  END
$$$$
