
 OpenBabel03202621282D

 20 22  0  0  1  0  0  0  0  0999 V2000
    3.2537    1.9286    0.0000 C   0  0  0  0  0  0  0  0  0  0  0  0
    2.2952    1.9253    0.0000 C   0  0  0  0  0  0  0  0  0  0  0  0
    1.7344    1.1478    0.0000 C   0  0  0  0  0  0  0  0  0  0  0  0
    0.8217    1.4408    0.0000 N   0  0  0  0  0  0  0  0  0  0  0  0
   -0.0067    0.9586    0.0000 C   0  0  2  0  0  0  0  0  0  0  0  0
   -0.8465    1.4434    0.0000 C   0  0  2  0  0  0  0  0  0  0  0  0
   -1.6865    1.9284    0.0000 O   0  0  0  0  0  0  0  0  0  0  0  0
   -2.5328    1.4328    0.0000 C   0  0  0  0  0  0  0  0  0  0  0  0
   -3.4101    1.9316    0.0000 C   0  0  0  0  0  0  0  0  0  0  0  0
   -3.4037    0.9228    0.0000 C   0  0  0  0  0  0  0  0  0  0  0  0
   -2.5261    0.4742    0.0000 O   0  0  0  0  0  0  0  0  0  0  0  0
   -1.6861   -0.0108    0.0000 C   0  0  2  0  0  0  0  0  0  0  0  0
   -0.8463   -0.4956    0.0000 O   0  0  0  0  0  0  0  0  0  0  0  0
    0.0000    0.0000    0.0000 C   0  0  1  0  0  0  0  0  0  0  0  0
    0.8333   -0.4738    0.0000 C   0  0  2  0  0  0  0  0  0  0  0  0
    1.1356   -1.3835    0.0000 O   0  0  0  0  0  0  0  0  0  0  0  0
    1.4700    0.2428    0.0000 C   0  0  0  0  0  0  0  0  0  0  0  0
    2.4090    0.0497    0.0000 O   0  0  0  0  0  0  0  0  0  0  0  0
    0.8184    2.3994    0.0000 N   0  0  0  0  0  0  0  0  0  0  0  0
    1.7290    2.6988    0.0000 N   0  0  0  0  0  0  0  0  0  0  0  0
  1  2  1  0  0  0  0
  2 20  1  0  0  0  0
  2  3  2  0  0  0  0
  3  4  1  0  0  0  0
  4 19  1  0  0  0  0
  5  4  1  1  0  0  0
  5  6  1  0  0  0  0
  5 14  1  0  0  0  0
  6  7  1  1  0  0  0
  6 12  1  0  0  0  0
  7  8  1  0  0  0  0
  8  9  1  0  0  0  0
  8 10  1  0  0  0  0
  8 11  1  0  0  0  0
 12 11  1  1  0  0  0
 12 13  1  0  0  0  0
 13 14  1  0  0  0  0
 14 15  1  6  0  0  0
 15 16  1  1  0  0  0
 15 17  1  0  0  0  0
 17 18  1  0  0  0  0
 19 20  2  0  0  0  0
M  END
$$$$
