
 OpenBabel03202621382D

 26 28  0  0  0  0  0  0  0  0999 V2000
    1.4945   -0.9706    0.0000 C   0  0  0  0  0  0  0  0  0  0  0  0
    0.5000   -0.8660    0.0000 C   0  0  0  0  0  0  0  0  0  0  0  0
   -0.4077   -1.8849    0.0000 C   0  0  0  0  0  0  0  0  0  0  0  0
   -1.6172   -1.2956    0.0000 N   0  0  0  0  0  0  0  0  0  0  0  0
   -2.8587   -1.9359    0.0000 C   0  0  0  0  0  0  0  0  0  0  0  0
   -2.8653   -3.3504    0.0000 C   0  0  0  0  0  0  0  0  0  0  0  0
   -4.0532   -4.0402    0.0000 C   0  0  0  0  0  0  0  0  0  0  0  0
   -5.2362   -3.3127   -0.0000 C   0  0  0  0  0  0  0  0  0  0  0  0
   -5.2417   -1.8944    0.0000 C   0  0  0  0  0  0  0  0  0  0  0  0
   -6.4291   -1.1550   -0.0000 C   0  0  0  0  0  0  0  0  0  0  0  0
   -6.5344    0.1971   -0.0000 N   0  0  0  0  0  0  0  0  0  0  0  0
   -5.3838    0.8757    0.0000 C   0  0  0  0  0  0  0  0  0  0  0  0
   -4.1526    0.2497    0.0000 C   0  0  0  0  0  0  0  0  0  0  0  0
   -4.0505   -1.1705    0.0000 C   0  0  0  0  0  0  0  0  0  0  0  0
   -1.4536    0.0360    0.0000 N   0  0  0  0  0  0  0  0  0  0  0  0
   -0.1739    0.3116    0.0000 N   0  0  0  0  0  0  0  0  0  0  0  0
    1.7595   -2.0422   -0.0000 H   0  0  0  0  0  0  0  0  0  0  0  0
    1.9431    0.0360   -0.0000 H   0  0  0  0  0  0  0  0  0  0  0  0
    2.5586   -1.0825    0.0000 H   0  0  0  0  0  0  0  0  0  0  0  0
   -0.2442   -2.9586   -0.0000 H   0  0  0  0  0  0  0  0  0  0  0  0
   -1.9558   -3.9531    0.0000 H   0  0  0  0  0  0  0  0  0  0  0  0
   -4.0483   -5.1281   -0.0000 H   0  0  0  0  0  0  0  0  0  0  0  0
   -6.1711   -3.8639   -0.0000 H   0  0  0  0  0  0  0  0  0  0  0  0
   -7.3787   -1.6747   -0.0000 H   0  0  0  0  0  0  0  0  0  0  0  0
   -5.4446    1.9626   -0.0000 H   0  0  0  0  0  0  0  0  0  0  0  0
   -3.3210    0.9452    0.0000 H   0  0  0  0  0  0  0  0  0  0  0  0
  1  2  1  0  0  0  0
  1 17  1  0  0  0  0
  1 18  1  0  0  0  0
  1 19  1  0  0  0  0
  2 16  1  0  0  0  0
  2  3  2  0  0  0  0
  3  4  1  0  0  0  0
  3 20  1  0  0  0  0
  4  5  1  0  0  0  0
  4 15  1  0  0  0  0
  5 14  2  0  0  0  0
  5  6  1  0  0  0  0
  6  7  2  0  0  0  0
  6 21  1  0  0  0  0
  7  8  1  0  0  0  0
  7 22  1  0  0  0  0
  8  9  2  0  0  0  0
  8 23  1  0  0  0  0
  9 14  1  0  0  0  0
  9 10  1  0  0  0  0
 10 11  2  0  0  0  0
 10 24  1  0  0  0  0
 11 12  1  0  0  0  0
 12 13  2  0  0  0  0
 12 25  1  0  0  0  0
 13 14  1  0  0  0  0
 13 26  1  0  0  0  0
 15 16  2  0  0  0  0
M  END
$$$$
