
 OpenBabel03202621372D

 47 47  0  0  1  0  0  0  0  0999 V2000
    9.5263    0.5000    0.0000 C   0  0  0  0  0  0  0  0  0  0  0  0
    9.5263    1.5000    0.0000 C   0  0  0  0  0  0  0  0  0  0  0  0
    9.0327    2.6790   -0.3606 C   0  0  0  0  0  0  0  0  0  0  0  0
    7.7055    2.9899   -0.8510 C   0  0  0  0  0  0  0  0  0  0  0  0
    7.0834    3.7919    0.3210 C   0  0  0  0  0  0  0  0  0  0  0  0
    5.8677    3.0336    0.7475 C   0  0  0  0  0  0  0  0  0  0  0  0
    4.9079    3.1736   -0.1817 C   0  0  0  0  0  0  0  0  0  0  0  0
    4.7854    2.1352   -1.2450 C   0  0  0  0  0  0  0  0  0  0  0  0
    3.3718    1.7095   -1.3609 C   0  0  0  0  0  0  0  0  0  0  0  0
    2.8585    1.5302   -2.4628 O   0  0  0  0  0  0  0  0  0  0  0  0
    2.5981    1.5000    0.0000 C   0  0  2  0  0  0  0  0  0  0  0  0
    1.1789    1.9451   -0.7123 O   0  0  0  0  0  0  0  0  0  0  0  0
    2.5981    0.5000    0.0000 C   0  0  2  0  0  0  0  0  0  0  0  0
    1.4560   -0.3532   -0.4504 O   0  0  0  0  0  0  0  0  0  0  0  0
    0.1885   -0.2644    0.1327 C   0  0  0  0  0  0  0  0  0  0  0  0
   -0.2126    0.5638    1.1209 C   0  0  0  0  0  0  0  0  0  0  0  0
   -1.5145    0.8444    1.4766 O   0  0  0  0  0  0  0  0  0  0  0  0
   -2.4021    0.6347    0.3728 C   0  0  0  0  0  0  0  0  0  0  0  0
   -2.3232   -0.8053   -0.0753 C   0  0  0  0  0  0  0  0  0  0  0  0
   -0.8956   -1.1106   -0.4563 C   0  0  0  0  0  0  0  0  0  0  0  0
   -0.6132   -2.0687   -1.1749 O   0  0  0  0  0  0  0  0  0  0  0  0
    3.8011   -0.4969    0.0461 C   0  0  0  0  0  0  0  0  0  0  0  0
    3.6281   -1.6895   -0.5960 N   0  0  0  0  0  0  0  0  0  0  0  0
    4.8236   -0.2821    0.6913 O   0  0  0  0  0  0  0  0  0  0  0  0
    9.4155    0.3339    1.0970 H   0  0  0  0  0  0  0  0  0  0  0  0
   10.5656    0.3020   -0.3606 H   0  0  0  0  0  0  0  0  0  0  0  0
    9.5263   -0.5700    0.0000 H   0  0  0  0  0  0  0  0  0  0  0  0
   10.4553    1.8658    0.5084 H   0  0  0  0  0  0  0  0  0  0  0  0
    9.6329    3.5708   -0.1582 H   0  0  0  0  0  0  0  0  0  0  0  0
    7.7286    3.5675   -1.7795 H   0  0  0  0  0  0  0  0  0  0  0  0
    7.2348    2.0317   -1.0757 H   0  0  0  0  0  0  0  0  0  0  0  0
    7.7431    3.9061    1.1913 H   0  0  0  0  0  0  0  0  0  0  0  0
    6.8414    4.8053   -0.0171 H   0  0  0  0  0  0  0  0  0  0  0  0
    6.1182    2.0422    1.1344 H   0  0  0  0  0  0  0  0  0  0  0  0
    4.6866    4.1841   -0.5457 H   0  0  0  0  0  0  0  0  0  0  0  0
    5.1144    2.5666   -2.1922 H   0  0  0  0  0  0  0  0  0  0  0  0
    5.3936    1.2484   -1.0567 H   0  0  0  0  0  0  0  0  0  0  0  0
    2.5981    2.5700    0.0000 H   0  0  0  0  0  0  0  0  0  0  0  0
    1.2610    1.6700   -1.6562 H   0  0  0  0  0  0  0  0  0  0  0  0
    2.4377    0.3314    1.0850 H   0  0  0  0  0  0  0  0  0  0  0  0
    0.4340    1.2128    1.6964 H   0  0  0  0  0  0  0  0  0  0  0  0
   -2.1502    1.3329   -0.4408 H   0  0  0  0  0  0  0  0  0  0  0  0
   -3.4164    0.8846    0.7023 H   0  0  0  0  0  0  0  0  0  0  0  0
   -2.6149   -1.4770    0.7384 H   0  0  0  0  0  0  0  0  0  0  0  0
   -2.9728   -0.9670   -0.9410 H   0  0  0  0  0  0  0  0  0  0  0  0
    2.6992   -1.9574   -0.9152 H   0  0  0  0  0  0  0  0  0  0  0  0
    4.3073   -2.4229   -0.4419 H   0  0  0  0  0  0  0  0  0  0  0  0
  1  2  1  0  0  0  0
  1 25  1  0  0  0  0
  1 26  1  0  0  0  0
  1 27  1  0  0  0  0
  2  3  2  3  0  0  0
  2 28  1  0  0  0  0
  3  4  1  0  0  0  0
  3 29  1  0  0  0  0
  4  5  1  0  0  0  0
  4 30  1  0  0  0  0
  4 31  1  0  0  0  0
  5  6  1  0  0  0  0
  5 32  1  0  0  0  0
  5 33  1  0  0  0  0
  6  7  2  3  0  0  0
  6 34  1  0  0  0  0
  7  8  1  0  0  0  0
  7 35  1  0  0  0  0
  8  9  1  0  0  0  0
  8 36  1  0  0  0  0
  8 37  1  0  0  0  0
  9 10  2  0  0  0  0
  9 11  1  0  0  0  0
 11 12  1  0  0  0  0
 11 13  1  0  0  0  0
 11 38  1  6  0  0  0
 12 39  1  0  0  0  0
 13 14  1  0  0  0  0
 13 22  1  0  0  0  0
 13 40  1  6  0  0  0
 14 15  1  0  0  0  0
 15 20  1  0  0  0  0
 15 16  2  0  0  0  0
 16 17  1  0  0  0  0
 16 41  1  0  0  0  0
 17 18  1  0  0  0  0
 18 19  1  0  0  0  0
 18 42  1  0  0  0  0
 18 43  1  0  0  0  0
 19 20  1  0  0  0  0
 19 44  1  0  0  0  0
 19 45  1  0  0  0  0
 20 21  2  0  0  0  0
 22 23  1  0  0  0  0
 22 24  2  0  0  0  0
 23 46  1  0  0  0  0
 23 47  1  0  0  0  0
M  END
$$$$
