
 OpenBabel03202621312D

 33 34  0  0  0  0  0  0  0  0999 V2000
   -0.6382   -3.3678   -0.9238 N   0  0  0  0  0  0  0  0  0  0  0  0
   -0.4548   -2.2391   -0.7184 C   0  0  0  0  0  0  0  0  0  0  0  0
   -0.2210   -0.8517   -0.4629 C   0  0  0  0  0  0  0  0  0  0  0  0
   -1.3628   -0.0298   -0.3818 C   0  0  0  0  0  0  0  0  0  0  0  0
   -1.2692    1.3483   -0.1848 C   0  0  0  0  0  0  0  0  0  0  0  0
   -2.3707    2.2192   -0.0143 N   0  0  0  0  0  0  0  0  0  0  0  0
   -3.7145    1.9416    0.1193 C   0  0  0  0  0  0  0  0  0  0  0  0
   -4.7551    3.1116    0.6774 S   0  0  0  0  0  0  0  0  0  0  0  0
   -4.0812    0.6629   -0.1549 O   0  0  0  0  0  0  0  0  0  0  0  0
   -5.2831   -0.0615    0.0647 C   0  0  0  0  0  0  0  0  0  0  0  0
   -5.2242   -1.2592    0.6616 C   0  0  0  0  0  0  0  0  0  0  0  0
   -6.2544   -2.1449    0.8389 O   0  0  0  0  0  0  0  0  0  0  0  0
   -7.3978   -1.8751    0.0183 C   0  0  0  0  0  0  0  0  0  0  0  0
   -7.7891   -0.4115    0.0617 C   0  0  0  0  0  0  0  0  0  0  0  0
   -6.6073    0.3696   -0.4540 C   0  0  0  0  0  0  0  0  0  0  0  0
   -6.7298    1.2932   -1.2517 O   0  0  0  0  0  0  0  0  0  0  0  0
    0.0078    1.9080   -0.1085 C   0  0  0  0  0  0  0  0  0  0  0  0
    1.1508    1.0997   -0.1861 C   0  0  0  0  0  0  0  0  0  0  0  0
    1.0524   -0.2890   -0.3356 C   0  0  0  0  0  0  0  0  0  0  0  0
    2.2665   -0.9161   -0.3974 O   0  0  0  0  0  0  0  0  0  0  0  0
    2.3841   -2.2407    0.1111 C   0  0  0  0  0  0  0  0  0  0  0  0
    1.7017   -2.3460    1.2767 F   0  0  0  0  0  0  0  0  0  0  0  0
    3.6932   -2.4379    0.4087 F   0  0  0  0  0  0  0  0  0  0  0  0
   -2.3191   -0.5259   -0.4951 H   0  0  0  0  0  0  0  0  0  0  0  0
   -2.1535    3.1931    0.1694 H   0  0  0  0  0  0  0  0  0  0  0  0
   -4.3091   -1.6631    1.0779 H   0  0  0  0  0  0  0  0  0  0  0  0
   -7.1747   -2.1994   -1.0072 H   0  0  0  0  0  0  0  0  0  0  0  0
   -8.2179   -2.4995    0.3867 H   0  0  0  0  0  0  0  0  0  0  0  0
   -8.0045   -0.0820    1.0838 H   0  0  0  0  0  0  0  0  0  0  0  0
   -8.6619   -0.2286   -0.5711 H   0  0  0  0  0  0  0  0  0  0  0  0
    0.1419    2.9792    0.0294 H   0  0  0  0  0  0  0  0  0  0  0  0
    2.1325    1.5652   -0.1128 H   0  0  0  0  0  0  0  0  0  0  0  0
    2.0737   -2.9995   -0.6120 H   0  0  0  0  0  0  0  0  0  0  0  0
  1  2  3  0  0  0  0
  2  3  1  0  0  0  0
  3 19  2  0  0  0  0
  3  4  1  0  0  0  0
  4  5  2  0  0  0  0
  4 24  1  0  0  0  0
  5  6  1  0  0  0  0
  5 17  1  0  0  0  0
  6  7  1  0  0  0  0
  6 25  1  0  0  0  0
  7  8  2  0  0  0  0
  7  9  1  0  0  0  0
  9 10  1  0  0  0  0
 10 15  1  0  0  0  0
 10 11  2  0  0  0  0
 11 12  1  0  0  0  0
 11 26  1  0  0  0  0
 12 13  1  0  0  0  0
 13 14  1  0  0  0  0
 13 27  1  0  0  0  0
 13 28  1  0  0  0  0
 14 15  1  0  0  0  0
 14 29  1  0  0  0  0
 14 30  1  0  0  0  0
 15 16  2  0  0  0  0
 17 18  2  0  0  0  0
 17 31  1  0  0  0  0
 18 19  1  0  0  0  0
 18 32  1  0  0  0  0
 19 20  1  0  0  0  0
 20 21  1  0  0  0  0
 21 22  1  0  0  0  0
 21 23  1  0  0  0  0
 21 33  1  0  0  0  0
M  END
$$$$
