
 OpenBabel03202621352D

 26 27  0  0  0  0  0  0  0  0999 V2000
    2.1014   -1.9037   -0.1604 N   0  0  0  0  0  0  0  0  0  0  0  0
    0.8962   -1.1927   -0.2230 C   0  0  0  0  0  0  0  0  0  0  0  0
   -0.1961   -1.8664   -0.6120 N   0  0  0  0  0  0  0  0  0  0  0  0
   -1.3621   -1.1696   -0.6469 C   0  0  0  0  0  0  0  0  0  0  0  0
   -1.4934    0.1594   -0.2495 C   0  0  0  0  0  0  0  0  0  0  0  0
   -2.6605    0.8730   -0.2072 O   0  0  0  0  0  0  0  0  0  0  0  0
   -3.8739    0.2835    0.0997 C   0  0  0  0  0  0  0  0  0  0  0  0
   -4.0832   -0.8534    0.7886 C   0  0  0  0  0  0  0  0  0  0  0  0
   -5.2954   -1.4518    1.0300 O   0  0  0  0  0  0  0  0  0  0  0  0
   -6.2974   -1.0523    0.0915 C   0  0  0  0  0  0  0  0  0  0  0  0
   -6.4445    0.4516    0.0443 C   0  0  0  0  0  0  0  0  0  0  0  0
   -5.1003    1.0774   -0.2208 C   0  0  0  0  0  0  0  0  0  0  0  0
   -5.0116    2.2378   -0.6215 O   0  0  0  0  0  0  0  0  0  0  0  0
   -0.3350    0.8524    0.0839 C   0  0  0  0  0  0  0  0  0  0  0  0
    0.8666    0.1648    0.1091 C   0  0  0  0  0  0  0  0  0  0  0  0
    2.0030    0.8170    0.4965 O   0  0  0  0  0  0  0  0  0  0  0  0
    1.8630   -2.8647   -0.4199 H   0  0  0  0  0  0  0  0  0  0  0  0
    2.7568   -1.5306   -0.8418 H   0  0  0  0  0  0  0  0  0  0  0  0
   -2.2057   -1.7428   -1.0075 H   0  0  0  0  0  0  0  0  0  0  0  0
   -3.2995   -1.4432    1.2473 H   0  0  0  0  0  0  0  0  0  0  0  0
   -6.0441   -1.4625   -0.8949 H   0  0  0  0  0  0  0  0  0  0  0  0
   -7.2426   -1.5124    0.3988 H   0  0  0  0  0  0  0  0  0  0  0  0
   -6.8188    0.8379    0.9972 H   0  0  0  0  0  0  0  0  0  0  0  0
   -7.1317    0.7314   -0.7604 H   0  0  0  0  0  0  0  0  0  0  0  0
   -0.3703    1.9041    0.3506 H   0  0  0  0  0  0  0  0  0  0  0  0
    2.6535    0.1103    0.6751 H   0  0  0  0  0  0  0  0  0  0  0  0
  1  2  1  0  0  0  0
  1 17  1  0  0  0  0
  1 18  1  0  0  0  0
  2 15  2  0  0  0  0
  2  3  1  0  0  0  0
  3  4  2  0  0  0  0
  4  5  1  0  0  0  0
  4 19  1  0  0  0  0
  5  6  1  0  0  0  0
  5 14  2  0  0  0  0
  6  7  1  0  0  0  0
  7 12  1  0  0  0  0
  7  8  2  0  0  0  0
  8  9  1  0  0  0  0
  8 20  1  0  0  0  0
  9 10  1  0  0  0  0
 10 11  1  0  0  0  0
 10 21  1  0  0  0  0
 10 22  1  0  0  0  0
 11 12  1  0  0  0  0
 11 23  1  0  0  0  0
 11 24  1  0  0  0  0
 12 13  2  0  0  0  0
 14 15  1  0  0  0  0
 14 25  1  0  0  0  0
 15 16  1  0  0  0  0
 16 26  1  0  0  0  0
M  END
$$$$
