
 OpenBabel03202621322D

 26 27  0  0  0  0  0  0  0  0999 V2000
   -1.5878   -0.8090    0.0000 C   0  0  0  0  0  0  0  0  0  0  0  0
   -1.0000    0.0000    0.0000 N   0  0  0  0  0  0  0  0  0  0  0  0
   -1.3204    1.3028    0.3852 N   0  0  0  0  0  0  0  0  0  0  0  0
   -0.3303    2.0255   -0.0368 C   0  0  0  0  0  0  0  0  0  0  0  0
   -0.2825    3.5313   -0.0461 C   0  0  0  0  0  0  0  0  0  0  0  0
    0.8181    4.0667    0.0265 O   0  0  0  0  0  0  0  0  0  0  0  0
   -1.4410    4.2098   -0.1986 O   0  0  0  0  0  0  0  0  0  0  0  0
   -2.7556    3.7038   -0.3781 C   0  0  0  0  0  0  0  0  0  0  0  0
   -3.1224    2.7446   -1.2437 C   0  0  0  0  0  0  0  0  0  0  0  0
   -4.3754    2.1857   -1.3565 O   0  0  0  0  0  0  0  0  0  0  0  0
   -5.1944    2.4228   -0.2034 C   0  0  0  0  0  0  0  0  0  0  0  0
   -5.2637    3.9013    0.1081 C   0  0  0  0  0  0  0  0  0  0  0  0
   -3.8592    4.3858    0.3579 C   0  0  0  0  0  0  0  0  0  0  0  0
   -3.6278    5.3528    1.0815 O   0  0  0  0  0  0  0  0  0  0  0  0
    0.6940    1.3159   -0.5667 N   0  0  0  0  0  0  0  0  0  0  0  0
    0.2894    0.0087   -0.5899 C   0  0  0  0  0  0  0  0  0  0  0  0
    0.9142   -0.9168   -1.0764 O   0  0  0  0  0  0  0  0  0  0  0  0
   -2.5920   -0.3343    0.0823 H   0  0  0  0  0  0  0  0  0  0  0  0
   -1.2888   -1.2013    0.9971 H   0  0  0  0  0  0  0  0  0  0  0  0
   -2.2167   -1.6746    0.0000 H   0  0  0  0  0  0  0  0  0  0  0  0
   -2.4532    2.2590   -1.9422 H   0  0  0  0  0  0  0  0  0  0  0  0
   -4.7971    1.8481    0.6451 H   0  0  0  0  0  0  0  0  0  0  0  0
   -6.1946    2.0322   -0.4184 H   0  0  0  0  0  0  0  0  0  0  0  0
   -5.6752    4.4636   -0.7364 H   0  0  0  0  0  0  0  0  0  0  0  0
   -5.8742    4.0742    0.9991 H   0  0  0  0  0  0  0  0  0  0  0  0
    1.5614    1.6696   -0.9378 H   0  0  0  0  0  0  0  0  0  0  0  0
  1  2  1  0  0  0  0
  1 18  1  0  0  0  0
  1 19  1  0  0  0  0
  1 20  1  0  0  0  0
  2 16  1  0  0  0  0
  2  3  1  0  0  0  0
  3  4  2  0  0  0  0
  4  5  1  0  0  0  0
  4 15  1  0  0  0  0
  5  6  2  0  0  0  0
  5  7  1  0  0  0  0
  7  8  1  0  0  0  0
  8 13  1  0  0  0  0
  8  9  2  0  0  0  0
  9 10  1  0  0  0  0
  9 21  1  0  0  0  0
 10 11  1  0  0  0  0
 11 12  1  0  0  0  0
 11 22  1  0  0  0  0
 11 23  1  0  0  0  0
 12 13  1  0  0  0  0
 12 24  1  0  0  0  0
 12 25  1  0  0  0  0
 13 14  2  0  0  0  0
 15 16  1  0  0  0  0
 15 26  1  0  0  0  0
 16 17  2  0  0  0  0
M  END
$$$$
