
 OpenBabel03202621382D

 35 37  0  0  0  0  0  0  0  0999 V2000
   -0.0933   -1.7796    0.0000 C   0  0  0  0  0  0  0  0  0  0  0  0
   -0.5000   -0.8660    0.0000 C   0  0  0  0  0  0  0  0  0  0  0  0
   -1.2705   -0.0923    0.8741 C   0  0  0  0  0  0  0  0  0  0  0  0
   -1.9514    0.7541    0.0414 N   0  0  0  0  0  0  0  0  0  0  0  0
   -3.2336    1.3946    0.2243 C   0  0  0  0  0  0  0  0  0  0  0  0
   -4.5168    0.5667    0.3882 C   0  0  0  0  0  0  0  0  0  0  0  0
   -5.4233    1.1747    0.9858 O   0  0  0  0  0  0  0  0  0  0  0  0
   -4.7125   -0.7364   -0.1196 N   0  0  0  0  0  0  0  0  0  0  0  0
   -3.5907   -1.6062   -0.4565 C   0  0  0  0  0  0  0  0  0  0  0  0
   -3.8844   -2.9950   -0.9916 C   0  0  0  0  0  0  0  0  0  0  0  0
   -4.8836   -3.6624   -0.0815 C   0  0  0  0  0  0  0  0  0  0  0  0
   -6.1100   -2.7953   -0.0394 C   0  0  0  0  0  0  0  0  0  0  0  0
   -7.3596   -3.4276    0.0499 C   0  0  0  0  0  0  0  0  0  0  0  0
   -8.5286   -2.6745    0.0701 C   0  0  0  0  0  0  0  0  0  0  0  0
   -8.4505   -1.2909   -0.0036 C   0  0  0  0  0  0  0  0  0  0  0  0
   -7.2067   -0.6539   -0.0680 C   0  0  0  0  0  0  0  0  0  0  0  0
   -6.0099   -1.3840   -0.0607 C   0  0  0  0  0  0  0  0  0  0  0  0
   -1.3255    0.8570   -1.1339 N   0  0  0  0  0  0  0  0  0  0  0  0
   -0.4653   -0.1490   -1.1886 N   0  0  0  0  0  0  0  0  0  0  0  0
   -0.7694   -2.3155    0.7071 H   0  0  0  0  0  0  0  0  0  0  0  0
    0.8636   -1.5383    0.5200 H   0  0  0  0  0  0  0  0  0  0  0  0
    0.3419   -2.7571    0.0000 H   0  0  0  0  0  0  0  0  0  0  0  0
   -1.5791   -0.2529    1.8970 H   0  0  0  0  0  0  0  0  0  0  0  0
   -3.1180    2.0096    1.1259 H   0  0  0  0  0  0  0  0  0  0  0  0
   -3.3909    2.0767   -0.6195 H   0  0  0  0  0  0  0  0  0  0  0  0
   -2.9962   -1.1037   -1.2160 H   0  0  0  0  0  0  0  0  0  0  0  0
   -3.0429   -1.7403    0.4755 H   0  0  0  0  0  0  0  0  0  0  0  0
   -4.2684   -2.9311   -2.0163 H   0  0  0  0  0  0  0  0  0  0  0  0
   -2.9555   -3.5777   -1.0272 H   0  0  0  0  0  0  0  0  0  0  0  0
   -4.4863   -3.7829    0.9333 H   0  0  0  0  0  0  0  0  0  0  0  0
   -5.1134   -4.6594   -0.4729 H   0  0  0  0  0  0  0  0  0  0  0  0
   -7.4264   -4.5125    0.0942 H   0  0  0  0  0  0  0  0  0  0  0  0
   -9.4937   -3.1685    0.1271 H   0  0  0  0  0  0  0  0  0  0  0  0
   -9.3600   -0.6947   -0.0103 H   0  0  0  0  0  0  0  0  0  0  0  0
   -7.2096    0.4286   -0.1545 H   0  0  0  0  0  0  0  0  0  0  0  0
  1  2  1  0  0  0  0
  1 20  1  0  0  0  0
  1 21  1  0  0  0  0
  1 22  1  0  0  0  0
  2 19  1  0  0  0  0
  2  3  2  0  0  0  0
  3  4  1  0  0  0  0
  3 23  1  0  0  0  0
  4  5  1  0  0  0  0
  4 18  1  0  0  0  0
  5  6  1  0  0  0  0
  5 24  1  0  0  0  0
  5 25  1  0  0  0  0
  6  7  2  0  0  0  0
  6  8  1  0  0  0  0
  8 17  1  0  0  0  0
  8  9  1  0  0  0  0
  9 10  1  0  0  0  0
  9 26  1  0  0  0  0
  9 27  1  0  0  0  0
 10 11  1  0  0  0  0
 10 28  1  0  0  0  0
 10 29  1  0  0  0  0
 11 12  1  0  0  0  0
 11 30  1  0  0  0  0
 11 31  1  0  0  0  0
 12 17  2  0  0  0  0
 12 13  1  0  0  0  0
 13 14  2  0  0  0  0
 13 32  1  0  0  0  0
 14 15  1  0  0  0  0
 14 33  1  0  0  0  0
 15 16  2  0  0  0  0
 15 34  1  0  0  0  0
 16 17  1  0  0  0  0
 16 35  1  0  0  0  0
 18 19  2  0  0  0  0
M  END
$$$$
