
 OpenBabel03202621362D

 18 18  0  0  0  0  0  0  0  0999 V2000
    2.3767    3.0343   -0.1625 C   0  0  0  0  0  0  0  0  0  0  0  0
    0.6522    2.5263    0.0415 S   0  0  0  0  0  0  0  0  0  0  0  0
    0.7445    0.7505    0.0437 C   0  0  0  0  0  0  0  0  0  0  0  0
    1.9129   -0.0060    0.0662 C   0  0  0  0  0  0  0  0  0  0  0  0
    1.9327   -1.3672    0.0619 N   0  0  0  0  0  0  0  0  0  0  0  0
    0.7129   -1.9684    0.0411 C   0  0  0  0  0  0  0  0  0  0  0  0
    0.6619   -3.4740    0.0153 C   0  0  0  0  0  0  0  0  0  0  0  0
    1.9612   -4.0405    0.1864 O   0  0  0  0  0  0  0  0  0  0  0  0
   -0.4555   -1.2222    0.0239 C   0  0  0  0  0  0  0  0  0  0  0  0
   -0.4620    0.1314    0.0255 N   0  0  0  0  0  0  0  0  0  0  0  0
    2.8166    2.5856   -1.0572 H   0  0  0  0  0  0  0  0  0  0  0  0
    2.4122    4.1217   -0.2756 H   0  0  0  0  0  0  0  0  0  0  0  0
    2.9643    2.7651    0.7193 H   0  0  0  0  0  0  0  0  0  0  0  0
    2.8973    0.4459    0.0882 H   0  0  0  0  0  0  0  0  0  0  0  0
    0.0224   -3.8476    0.8207 H   0  0  0  0  0  0  0  0  0  0  0  0
    0.2684   -3.8155   -0.9468 H   0  0  0  0  0  0  0  0  0  0  0  0
    2.5752   -3.2772    0.2045 H   0  0  0  0  0  0  0  0  0  0  0  0
   -1.4350   -1.6902    0.0086 H   0  0  0  0  0  0  0  0  0  0  0  0
  1  2  1  0  0  0  0
  1 11  1  0  0  0  0
  1 12  1  0  0  0  0
  1 13  1  0  0  0  0
  2  3  1  0  0  0  0
  3 10  2  0  0  0  0
  3  4  1  0  0  0  0
  4  5  2  0  0  0  0
  4 14  1  0  0  0  0
  5  6  1  0  0  0  0
  6  7  1  0  0  0  0
  6  9  2  0  0  0  0
  7  8  1  0  0  0  0
  7 15  1  0  0  0  0
  7 16  1  0  0  0  0
  8 17  1  0  0  0  0
  9 10  1  0  0  0  0
  9 18  1  0  0  0  0
M  END
$$$$
