
 OpenBabel03202621372D

 44 47  0  0  1  0  0  0  0  0999 V2000
    4.5340   -0.0686    0.0000 C   0  0  0  0  0  0  0  0  0  0  0  0
    3.6733    0.3087    0.0000 C   0  0  0  0  0  0  0  0  0  0  0  0
    3.3233   -0.0380    1.4089 C   0  0  0  0  0  0  0  0  0  0  0  0
    2.4838    0.9940    1.6641 N   0  0  0  0  0  0  0  0  0  0  0  0
    1.4124    0.8148    0.7067 C   0  0  3  0  0  0  0  0  0  0  0  0
    1.3649    2.1381   -0.1948 C   0  0  0  0  0  0  0  0  0  0  0  0
    0.9158    1.8298   -1.5727 C   0  0  3  0  0  0  0  0  0  0  0  0
    1.1448    3.0373   -2.4927 C   0  0  0  0  0  0  0  0  0  0  0  0
   -0.4916    1.6473   -1.2017 C   0  0  0  0  0  0  0  0  0  0  0  0
   -0.6206    0.4273    0.0000 C   0  0  3  0  0  0  0  0  0  0  0  0
   -1.5922    0.6770    0.0000 C   0  0  0  0  0  0  0  0  0  0  0  0
   -0.3815   -0.8352   -0.9931 C   0  0  0  0  0  0  0  0  0  0  0  0
    1.0443   -0.7731   -1.4056 C   0  0  3  0  0  0  0  0  0  0  0  0
    1.4726   -1.9942   -2.2143 C   0  0  0  0  0  0  0  0  0  0  0  0
    1.4319    0.5159   -2.1865 C   0  0  0  0  0  0  0  0  0  0  0  0
    1.5131   -0.7867    0.0061 C   0  0  0  0  0  0  0  0  0  0  0  0
    0.0841    0.6922    1.3015 C   0  0  0  0  0  0  0  0  0  0  0  0
    3.3133    2.0423    1.4010 N   0  0  0  0  0  0  0  0  0  0  0  0
    3.7612    1.7291    0.1652 N   0  0  0  0  0  0  0  0  0  0  0  0
    4.3153   -1.0694   -0.4593 H   0  0  0  0  0  0  0  0  0  0  0  0
    5.0015    0.4585   -0.8794 H   0  0  0  0  0  0  0  0  0  0  0  0
    5.5140   -0.4982    0.0000 H   0  0  0  0  0  0  0  0  0  0  0  0
    3.5203   -0.8762    2.0696 H   0  0  0  0  0  0  0  0  0  0  0  0
    2.2092    2.8157   -0.3147 H   0  0  0  0  0  0  0  0  0  0  0  0
    0.7176    2.8684    0.3359 H   0  0  0  0  0  0  0  0  0  0  0  0
    2.2138    3.2100   -2.6437 H   0  0  0  0  0  0  0  0  0  0  0  0
    0.7240    3.9506   -2.0539 H   0  0  0  0  0  0  0  0  0  0  0  0
    0.6752    2.8888   -3.4687 H   0  0  0  0  0  0  0  0  0  0  0  0
   -1.0630    1.4100   -2.1204 H   0  0  0  0  0  0  0  0  0  0  0  0
   -0.9428    2.6036   -0.8516 H   0  0  0  0  0  0  0  0  0  0  0  0
   -2.0945    0.1730   -0.8688 H   0  0  0  0  0  0  0  0  0  0  0  0
   -1.9536    0.0481    0.8578 H   0  0  0  0  0  0  0  0  0  0  0  0
   -2.6285    0.9433    0.0000 H   0  0  0  0  0  0  0  0  0  0  0  0
   -0.6796   -1.7733   -0.4969 H   0  0  0  0  0  0  0  0  0  0  0  0
   -0.9749   -0.8212   -1.9255 H   0  0  0  0  0  0  0  0  0  0  0  0
    1.2081   -2.9304   -1.7076 H   0  0  0  0  0  0  0  0  0  0  0  0
    2.5548   -1.9963   -2.3767 H   0  0  0  0  0  0  0  0  0  0  0  0
    0.9880   -2.0010   -3.1973 H   0  0  0  0  0  0  0  0  0  0  0  0
    2.5173    0.5756   -2.3257 H   0  0  0  0  0  0  0  0  0  0  0  0
    1.0140    0.4379   -3.1996 H   0  0  0  0  0  0  0  0  0  0  0  0
    2.4048   -1.4150    0.0169 H   0  0  0  0  0  0  0  0  0  0  0  0
    0.9513   -1.4593    0.6870 H   0  0  0  0  0  0  0  0  0  0  0  0
   -0.2443    1.5983    1.8289 H   0  0  0  0  0  0  0  0  0  0  0  0
   -0.0132   -0.1322    2.0225 H   0  0  0  0  0  0  0  0  0  0  0  0
  1  2  1  0  0  0  0
  1 20  1  0  0  0  0
  1 21  1  0  0  0  0
  1 22  1  0  0  0  0
  2 19  1  0  0  0  0
  2  3  2  0  0  0  0
  3  4  1  0  0  0  0
  3 23  1  0  0  0  0
  4  5  1  0  0  0  0
  4 18  1  0  0  0  0
  5 16  1  0  0  0  0
  5 17  1  0  0  0  0
  5  6  1  0  0  0  0
  6  7  1  0  0  0  0
  6 24  1  0  0  0  0
  6 25  1  0  0  0  0
  7 15  1  0  0  0  0
  7  8  1  0  0  0  0
  7  9  1  0  0  0  0
  8 26  1  0  0  0  0
  8 27  1  0  0  0  0
  8 28  1  0  0  0  0
  9 10  1  0  0  0  0
  9 29  1  0  0  0  0
  9 30  1  0  0  0  0
 10 11  1  0  0  0  0
 10 12  1  0  0  0  0
 10 17  1  0  0  0  0
 11 31  1  0  0  0  0
 11 32  1  0  0  0  0
 11 33  1  0  0  0  0
 12 13  1  0  0  0  0
 12 34  1  0  0  0  0
 12 35  1  0  0  0  0
 13 14  1  0  0  0  0
 13 15  1  0  0  0  0
 13 16  1  0  0  0  0
 14 36  1  0  0  0  0
 14 37  1  0  0  0  0
 14 38  1  0  0  0  0
 15 39  1  0  0  0  0
 15 40  1  0  0  0  0
 16 41  1  0  0  0  0
 16 42  1  0  0  0  0
 17 43  1  0  0  0  0
 17 44  1  0  0  0  0
 18 19  2  0  0  0  0
M  END
$$$$
