
 OpenBabel03202621372D

 21 20  0  0  0  0  0  0  0  0999 V2000
    4.3301    0.5000    0.0000 C   0  0  0  0  0  0  0  0  0  0  0  0
    4.3301    1.5000    0.0000 S   0  0  0  0  0  0  0  0  0  0  0  0
    3.7999    2.5679   -1.4085 C   0  0  0  0  0  0  0  0  0  0  0  0
    2.3435    2.4480   -1.2055 C   0  0  0  0  0  0  0  0  0  0  0  0
    1.0596    3.2034   -1.1910 C   0  0  0  0  0  0  0  0  0  0  0  0
    0.1425    2.2096   -0.4222 C   0  0  0  0  0  0  0  0  0  0  0  0
   -1.0113    2.4720   -0.1201 O   0  0  0  0  0  0  0  0  0  0  0  0
    0.8660    0.5000    0.0000 S   0  0  0  0  0  0  0  0  0  0  0  0
    0.0000    0.0000    0.0000 C   0  0  0  0  0  0  0  0  0  0  0  0
    4.0940    0.3285    1.0672 H   0  0  0  0  0  0  0  0  0  0  0  0
    5.4139    0.3272   -0.1415 H   0  0  0  0  0  0  0  0  0  0  0  0
    4.3301   -0.5700    0.0000 H   0  0  0  0  0  0  0  0  0  0  0  0
    4.1468    3.5890   -1.2167 H   0  0  0  0  0  0  0  0  0  0  0  0
    4.1615    2.2229   -2.3665 H   0  0  0  0  0  0  0  0  0  0  0  0
    2.3225    2.3977   -0.1048 H   0  0  0  0  0  0  0  0  0  0  0  0
    2.1260    1.5428   -1.7807 H   0  0  0  0  0  0  0  0  0  0  0  0
    0.6658    3.4054   -2.1845 H   0  0  0  0  0  0  0  0  0  0  0  0
    1.1251    4.1291   -0.6065 H   0  0  0  0  0  0  0  0  0  0  0  0
   -0.1106   -0.1569    1.0910 H   0  0  0  0  0  0  0  0  0  0  0  0
    0.3507   -0.9495   -0.4470 H   0  0  0  0  0  0  0  0  0  0  0  0
   -0.9266   -0.5350    0.0000 H   0  0  0  0  0  0  0  0  0  0  0  0
  1  2  1  0  0  0  0
  1 10  1  0  0  0  0
  1 11  1  0  0  0  0
  1 12  1  0  0  0  0
  2  3  1  0  0  0  0
  3  4  1  0  0  0  0
  3 13  1  0  0  0  0
  3 14  1  0  0  0  0
  4  5  1  0  0  0  0
  4 15  1  0  0  0  0
  4 16  1  0  0  0  0
  5  6  1  0  0  0  0
  5 17  1  0  0  0  0
  5 18  1  0  0  0  0
  6  7  2  0  0  0  0
  6  8  1  0  0  0  0
  8  9  1  0  0  0  0
  9 19  1  0  0  0  0
  9 20  1  0  0  0  0
  9 21  1  0  0  0  0
M  END
$$$$
