
 OpenBabel03202621342D

 31 32  0  0  1  0  0  0  0  0999 V2000
   -2.0062   -1.4764    0.9068 C   0  0  0  0  0  0  0  0  0  0  0  0
   -1.4519   -0.6830   -0.0352 C   0  0  0  0  0  0  0  0  0  0  0  0
   -2.0967   -0.4649   -1.2474 O   0  0  0  0  0  0  0  0  0  0  0  0
   -2.0846    0.9777   -1.2888 C   0  0  1  0  0  0  0  0  0  0  0  0
   -2.5981    1.5000    0.0000 O   0  0  0  0  0  0  0  0  0  0  0  0
   -3.4641    1.0000    0.0000 C   0  0  0  0  0  0  0  0  0  0  0  0
   -0.6501    1.3378   -1.4624 C   0  0  0  0  0  0  0  0  0  0  0  0
    0.0000    1.0000    0.0000 C   0  0  2  0  0  0  0  0  0  0  0  0
    1.6043    1.3348   -0.3913 N   0  0  0  0  0  0  0  0  0  0  0  0
    2.0090    2.5704   -0.8860 C   0  0  0  0  0  0  0  0  0  0  0  0
    3.2224    2.7947   -0.2834 C   0  0  0  0  0  0  0  0  0  0  0  0
    3.9706    4.0680   -0.2091 C   0  0  0  0  0  0  0  0  0  0  0  0
    3.6078    1.6597    0.3743 N   0  0  0  0  0  0  0  0  0  0  0  0
    2.6230    0.7697    0.3013 N   0  0  0  0  0  0  0  0  0  0  0  0
    0.0000    0.0000    0.0000 C   0  0  2  0  0  0  0  0  0  0  0  0
    0.4103   -0.1468    1.4867 O   0  0  0  0  0  0  0  0  0  0  0  0
   -2.9808   -1.9298    0.7675 H   0  0  0  0  0  0  0  0  0  0  0  0
   -1.4925   -1.6792    1.8462 H   0  0  0  0  0  0  0  0  0  0  0  0
   -2.6875    1.3223   -2.1449 H   0  0  0  0  0  0  0  0  0  0  0  0
   -4.1505    1.8177   -0.3196 H   0  0  0  0  0  0  0  0  0  0  0  0
   -3.6143    0.9121    1.0966 H   0  0  0  0  0  0  0  0  0  0  0  0
   -4.3907    0.4650    0.0000 H   0  0  0  0  0  0  0  0  0  0  0  0
   -0.6087    2.4062   -1.7234 H   0  0  0  0  0  0  0  0  0  0  0  0
   -0.1634    0.7849   -2.2818 H   0  0  0  0  0  0  0  0  0  0  0  0
    0.0000    2.0700    0.0000 H   0  0  0  0  0  0  0  0  0  0  0  0
    1.3557    3.2307   -1.4275 H   0  0  0  0  0  0  0  0  0  0  0  0
    4.9679    3.9259    0.2122 H   0  0  0  0  0  0  0  0  0  0  0  0
    3.4288    4.7747    0.4327 H   0  0  0  0  0  0  0  0  0  0  0  0
    4.0678    4.5273   -1.1981 H   0  0  0  0  0  0  0  0  0  0  0  0
    0.0000   -1.0700    0.0000 H   0  0  0  0  0  0  0  0  0  0  0  0
    1.3925   -0.2289    1.4819 H   0  0  0  0  0  0  0  0  0  0  0  0
  1  2  2  0  0  0  0
  1 17  1  0  0  0  0
  1 18  1  0  0  0  0
  2 15  1  0  0  0  0
  2  3  1  0  0  0  0
  3  4  1  0  0  0  0
  4  5  1  0  0  0  0
  4  7  1  0  0  0  0
  4 19  1  6  0  0  0
  5  6  1  0  0  0  0
  6 20  1  0  0  0  0
  6 21  1  0  0  0  0
  6 22  1  0  0  0  0
  7 23  1  0  0  0  0
  7 24  1  0  0  0  0
  8  7  1  0  0  0  0
  8  9  1  0  0  0  0
  8 15  1  0  0  0  0
  8 25  1  1  0  0  0
  9 14  1  0  0  0  0
  9 10  1  0  0  0  0
 10 11  2  0  0  0  0
 10 26  1  0  0  0  0
 11 12  1  0  0  0  0
 11 13  1  0  0  0  0
 12 27  1  0  0  0  0
 12 28  1  0  0  0  0
 12 29  1  0  0  0  0
 13 14  2  0  0  0  0
 15 16  1  0  0  0  0
 15 30  1  1  0  0  0
 16 31  1  0  0  0  0
M  END
$$$$
