
 OpenBabel03202621402D

 28 28  0  0  1  0  0  0  0  0999 V2000
    4.3301    2.5000    0.0000 C   0  0  0  0  0  0  0  0  0  0  0  0
    3.4641    3.0000    0.0000 C   0  0  2  0  0  0  0  0  0  0  0  0
    3.4494    4.0520    1.5446 Cl  0  0  0  0  0  0  0  0  0  0  0  0
    2.0856    2.3299   -0.0019 C   0  0  0  0  0  0  0  0  0  0  0  0
    2.0774    0.8272    0.2157 C   0  0  0  0  0  0  0  0  0  0  0  0
    0.6233    0.3943    0.2343 C   0  0  0  0  0  0  0  0  0  0  0  0
    0.5814   -1.0080    0.3650 O   0  0  0  0  0  0  0  0  0  0  0  0
   -0.6285   -1.6584    0.1778 C   0  0  0  0  0  0  0  0  0  0  0  0
   -0.5232   -2.9853    0.0289 C   0  0  0  0  0  0  0  0  0  0  0  0
   -1.6970   -3.8845   -0.1191 C   0  0  0  0  0  0  0  0  0  0  0  0
   -2.9839   -3.2860   -0.0173 O   0  0  0  0  0  0  0  0  0  0  0  0
   -3.0184   -1.9265    0.0849 C   0  0  0  0  0  0  0  0  0  0  0  0
   -1.9889   -1.0643    0.1744 C   0  0  0  0  0  0  0  0  0  0  0  0
   -2.0745    0.1918    0.2574 O   0  5  0  0  0  0  0  0  0  0  0  0
    4.2325    1.9694   -0.9795 H   0  0  0  0  0  0  0  0  0  0  0  0
    5.0579    3.3338   -0.1919 H   0  0  0  0  0  0  0  0  0  0  0  0
    5.2567    1.9650    0.0000 H   0  0  0  0  0  0  0  0  0  0  0  0
    3.3249    3.7888   -0.7625 H   0  0  0  0  0  0  0  0  0  0  0  0
    1.6186    2.5311   -0.9778 H   0  0  0  0  0  0  0  0  0  0  0  0
    1.4100    2.8014    0.7262 H   0  0  0  0  0  0  0  0  0  0  0  0
    2.5733    0.5507    1.1530 H   0  0  0  0  0  0  0  0  0  0  0  0
    2.6100    0.3107   -0.5920 H   0  0  0  0  0  0  0  0  0  0  0  0
    0.1491    0.8682    1.1008 H   0  0  0  0  0  0  0  0  0  0  0  0
    0.1704    0.7145   -0.7117 H   0  0  0  0  0  0  0  0  0  0  0  0
    0.4604   -3.4365    0.0318 H   0  0  0  0  0  0  0  0  0  0  0  0
   -1.6376   -4.6586    0.6559 H   0  0  0  0  0  0  0  0  0  0  0  0
   -1.6398   -4.3876   -1.0884 H   0  0  0  0  0  0  0  0  0  0  0  0
   -4.0456   -1.5714    0.0952 H   0  0  0  0  0  0  0  0  0  0  0  0
  1 15  1  0  0  0  0
  1 16  1  0  0  0  0
  1 17  1  0  0  0  0
  2  1  1  0  0  0  0
  2  3  1  0  0  0  0
  2  4  1  0  0  0  0
  2 18  1  6  0  0  0
  4  5  1  0  0  0  0
  4 19  1  0  0  0  0
  4 20  1  0  0  0  0
  5  6  1  0  0  0  0
  5 21  1  0  0  0  0
  5 22  1  0  0  0  0
  6  7  1  0  0  0  0
  6 23  1  0  0  0  0
  6 24  1  0  0  0  0
  7  8  1  0  0  0  0
  8 13  1  0  0  0  0
  8  9  2  0  0  0  0
  9 10  1  0  0  0  0
  9 25  1  0  0  0  0
 10 11  1  0  0  0  0
 10 26  1  0  0  0  0
 10 27  1  0  0  0  0
 11 12  1  0  0  0  0
 12 13  2  0  0  0  0
 12 28  1  0  0  0  0
 13 14  1  0  0  0  0
M  CHG  1  14  -1
M  END
$$$$
