
 OpenBabel03202621302D

 17 17  0  0  0  0  0  0  0  0999 V2000
    2.2953   -1.9260    0.0000 C   0  0  0  0  0  0  0  0  0  0  0  0
    2.5032   -0.9479    0.0000 S   0  0  0  0  0  0  0  0  0  0  0  0
    1.7764    0.3946    0.7839 C   0  0  0  0  0  0  0  0  0  0  0  0
    2.3733    1.2312    1.4421 O   0  0  0  0  0  0  0  0  0  0  0  0
    0.3741    0.3491    0.5161 C   0  0  0  0  0  0  0  0  0  0  0  0
   -0.3137   -0.6856    1.1108 C   0  0  0  0  0  0  0  0  0  0  0  0
   -0.5000   -1.5388    0.0000 N   0  0  0  0  0  0  0  0  0  0  0  0
   -1.0878   -2.3479    0.0000 C   0  0  0  0  0  0  0  0  0  0  0  0
   -0.5417   -0.7446   -1.1100 N   0  0  0  0  0  0  0  0  0  0  0  0
   -0.0582    0.4440   -0.7820 N   0  0  0  0  0  0  0  0  0  0  0  0
    2.2275   -2.0883   -1.0931 H   0  0  0  0  0  0  0  0  0  0  0  0
    3.2759   -2.3105    0.3391 H   0  0  0  0  0  0  0  0  0  0  0  0
    2.0728   -2.9726    0.0000 H   0  0  0  0  0  0  0  0  0  0  0  0
   -0.2681   -1.1212    2.1035 H   0  0  0  0  0  0  0  0  0  0  0  0
   -2.0022   -2.0443    0.5691 H   0  0  0  0  0  0  0  0  0  0  0  0
   -0.4836   -3.0904    0.5689 H   0  0  0  0  0  0  0  0  0  0  0  0
   -1.7167   -3.2136    0.0000 H   0  0  0  0  0  0  0  0  0  0  0  0
  1  2  1  0  0  0  0
  1 11  1  0  0  0  0
  1 12  1  0  0  0  0
  1 13  1  0  0  0  0
  2  3  1  0  0  0  0
  3  4  2  0  0  0  0
  3  5  1  0  0  0  0
  5 10  1  0  0  0  0
  5  6  2  0  0  0  0
  6  7  1  0  0  0  0
  6 14  1  0  0  0  0
  7  8  1  0  0  0  0
  7  9  1  0  0  0  0
  8 15  1  0  0  0  0
  8 16  1  0  0  0  0
  8 17  1  0  0  0  0
  9 10  2  0  0  0  0
M  END
$$$$
