
 OpenBabel03202621352D

 26 27  0  0  0  0  0  0  0  0999 V2000
    0.7459    3.8216    0.0670 O   0  0  0  0  0  0  0  0  0  0  0  0
   -0.0900    2.9195    0.0319 C   0  0  0  0  0  0  0  0  0  0  0  0
   -1.4233    3.2422   -0.1575 N   0  0  0  0  0  0  0  0  0  0  0  0
   -2.5981    2.5000    0.0000 C   0  0  0  0  0  0  0  0  0  0  0  0
   -3.5403    3.2399    0.3424 O   0  0  0  0  0  0  0  0  0  0  0  0
   -2.5981    1.5000    0.0000 C   0  0  0  0  0  0  0  0  0  0  0  0
   -2.5217    1.1782   -1.6509 C   0  0  0  0  0  0  0  0  0  0  0  0
   -3.8315    1.1366   -0.8927 C   0  0  0  0  0  0  0  0  0  0  0  0
    0.1275    1.5928    0.1690 O   0  0  0  0  0  0  0  0  0  0  0  0
    1.3716    0.9084    0.1475 C   0  0  0  0  0  0  0  0  0  0  0  0
    2.5707    1.5015    0.0836 C   0  0  0  0  0  0  0  0  0  0  0  0
    3.8291    0.7115   -0.0370 C   0  0  0  0  0  0  0  0  0  0  0  0
    3.6896   -0.6911   -0.2767 O   0  0  0  0  0  0  0  0  0  0  0  0
    2.4446   -1.2219   -0.0838 C   0  0  0  0  0  0  0  0  0  0  0  0
    1.2942   -0.5594    0.1433 C   0  0  0  0  0  0  0  0  0  0  0  0
    0.1339   -1.0146    0.3348 O   0  5  0  0  0  0  0  0  0  0  0  0
   -1.5867    4.2328   -0.0997 H   0  0  0  0  0  0  0  0  0  0  0  0
   -2.5981    0.4300    0.0000 H   0  0  0  0  0  0  0  0  0  0  0  0
   -1.4558    0.8322   -1.6831 H   0  0  0  0  0  0  0  0  0  0  0  0
   -2.5957    0.1970   -2.2013 H   0  0  0  0  0  0  0  0  0  0  0  0
   -4.5897    1.8647   -1.1901 H   0  0  0  0  0  0  0  0  0  0  0  0
   -4.3331    0.1753   -0.7382 H   0  0  0  0  0  0  0  0  0  0  0  0
    2.6803    2.5771    0.0966 H   0  0  0  0  0  0  0  0  0  0  0  0
    4.4186    1.1160   -0.8683 H   0  0  0  0  0  0  0  0  0  0  0  0
    4.4280    0.8363    0.8719 H   0  0  0  0  0  0  0  0  0  0  0  0
    2.4739   -2.3010   -0.1527 H   0  0  0  0  0  0  0  0  0  0  0  0
  1  2  2  0  0  0  0
  2  3  1  0  0  0  0
  2  9  1  0  0  0  0
  3  4  1  0  0  0  0
  3 17  1  0  0  0  0
  4  5  2  0  0  0  0
  4  6  1  0  0  0  0
  6  8  1  0  0  0  0
  6  7  1  0  0  0  0
  6 18  1  0  0  0  0
  7  8  1  0  0  0  0
  7 19  1  0  0  0  0
  7 20  1  0  0  0  0
  8 21  1  0  0  0  0
  8 22  1  0  0  0  0
  9 10  1  0  0  0  0
 10 15  1  0  0  0  0
 10 11  2  0  0  0  0
 11 12  1  0  0  0  0
 11 23  1  0  0  0  0
 12 13  1  0  0  0  0
 12 24  1  0  0  0  0
 12 25  1  0  0  0  0
 13 14  1  0  0  0  0
 14 15  2  0  0  0  0
 14 26  1  0  0  0  0
 15 16  1  0  0  0  0
M  CHG  1  16  -1
M  END
$$$$
