
 OpenBabel03202621382D

 22 22  0  0  1  0  0  0  0  0999 V2000
    2.2953   -1.9260    0.0000 C   0  0  0  0  0  0  0  0  0  0  0  0
    2.5032   -0.9479    0.0000 S   0  0  0  0  0  0  0  0  0  0  0  0
    1.0908    0.0471   -0.2824 C   0  0  0  0  0  0  0  0  0  0  0  0
    1.2115    1.1034   -0.8931 O   0  0  0  0  0  0  0  0  0  0  0  0
   -0.2241   -0.4063    0.3422 C   0  0  2  0  0  0  0  0  0  0  0  0
   -0.7806   -1.7097   -0.2350 C   0  0  0  0  0  0  0  0  0  0  0  0
   -2.2979   -1.6369   -0.0724 C   0  0  0  0  0  0  0  0  0  0  0  0
   -2.6117   -0.2100    0.3657 C   0  0  2  0  0  0  0  0  0  0  0  0
   -3.7265    0.2909   -0.3450 O   0  0  0  0  0  0  0  0  0  0  0  0
   -1.3528    0.5844    0.0613 C   0  0  0  0  0  0  0  0  0  0  0  0
    2.2722   -2.1091   -1.0938 H   0  0  0  0  0  0  0  0  0  0  0  0
    3.2622   -2.3063    0.3806 H   0  0  0  0  0  0  0  0  0  0  0  0
    2.0728   -2.9726    0.0000 H   0  0  0  0  0  0  0  0  0  0  0  0
   -0.0869   -0.4958    1.4279 H   0  0  0  0  0  0  0  0  0  0  0  0
   -0.3810   -2.5889    0.2808 H   0  0  0  0  0  0  0  0  0  0  0  0
   -0.5251   -1.8114   -1.2969 H   0  0  0  0  0  0  0  0  0  0  0  0
   -2.6335   -2.3463    0.6928 H   0  0  0  0  0  0  0  0  0  0  0  0
   -2.8022   -1.9119   -1.0054 H   0  0  0  0  0  0  0  0  0  0  0  0
   -2.8360   -0.1846    1.4381 H   0  0  0  0  0  0  0  0  0  0  0  0
   -3.7720    1.2516   -0.1925 H   0  0  0  0  0  0  0  0  0  0  0  0
   -1.2796    1.4811    0.6859 H   0  0  0  0  0  0  0  0  0  0  0  0
   -1.3536    0.9249   -0.9828 H   0  0  0  0  0  0  0  0  0  0  0  0
  1  2  1  0  0  0  0
  1 11  1  0  0  0  0
  1 12  1  0  0  0  0
  1 13  1  0  0  0  0
  2  3  1  0  0  0  0
  3  4  2  0  0  0  0
  5  3  1  0  0  0  0
  5  6  1  0  0  0  0
  5 10  1  0  0  0  0
  5 14  1  1  0  0  0
  6  7  1  0  0  0  0
  6 15  1  0  0  0  0
  6 16  1  0  0  0  0
  7  8  1  0  0  0  0
  7 17  1  0  0  0  0
  7 18  1  0  0  0  0
  8  9  1  0  0  0  0
  8 10  1  0  0  0  0
  8 19  1  1  0  0  0
  9 20  1  0  0  0  0
 10 21  1  0  0  0  0
 10 22  1  0  0  0  0
M  END
$$$$
