
 OpenBabel03202621392D

 72 73  0  0  1  0  0  0  0  0999 V2000
    3.4641   -5.0000    0.0000 C   0  0  0  0  0  0  0  0  0  0  0  0
    4.3301   -4.5000    0.0000 C   0  0  0  0  0  0  0  0  0  0  0  0
    5.4625   -4.8630    0.2393 O   0  0  0  0  0  0  0  0  0  0  0  0
    3.7832   -3.2737   -0.7803 C   0  0  0  0  0  0  0  0  0  0  0  0
    2.6771   -2.7041    0.1417 C   0  0  0  0  0  0  0  0  0  0  0  0
    1.5824   -3.2515   -0.0199 O   0  0  0  0  0  0  0  0  0  0  0  0
    2.8765   -1.8750    1.4168 C   0  0  2  0  0  0  0  0  0  0  0  0
    4.0233   -1.6141    2.2013 O   0  0  0  0  0  0  0  0  0  0  0  0
    5.1069   -2.1628    1.6965 C   0  0  0  0  0  0  0  0  0  0  0  0
    5.9664   -3.1024    2.7472 S   0  0  0  0  0  0  0  0  0  0  0  0
    5.1906   -1.7949    0.3783 N   0  0  0  0  0  0  0  0  0  0  0  0
    6.1969   -2.1608   -0.5723 C   0  0  0  0  0  0  0  0  0  0  0  0
    7.2899   -1.5088    0.0792 C   0  0  2  0  0  0  0  0  0  0  0  0
    7.3835   -0.2514   -0.4859 C   0  0  0  0  0  0  0  0  0  0  0  0
    8.8769   -0.2976    0.0000 C   0  0  0  0  0  0  0  0  0  0  0  0
    9.6859    0.2902    0.0000 C   0  0  0  0  0  0  0  0  0  0  0  0
    8.7724    0.6970    0.0000 C   0  0  0  0  0  0  0  0  0  0  0  0
    9.2422   -1.2227    1.0827 N   0  0  0  0  0  0  0  0  0  0  0  0
   10.7401   -1.4322    1.1419 O   0  0  0  0  0  0  0  0  0  0  0  0
    8.7078   -1.9067    0.0000 C   0  0  0  0  0  0  0  0  0  0  0  0
    8.3988   -2.8578    0.0000 C   0  0  0  0  0  0  0  0  0  0  0  0
   10.0556   -2.6823   -0.8923 C   0  0  0  0  0  0  0  0  0  0  0  0
    2.3228   -0.4890    1.3352 C   0  0  0  0  0  0  0  0  0  0  0  0
    1.9560    0.0887    2.3122 O   0  0  0  0  0  0  0  0  0  0  0  0
    2.4218    0.2759   -0.0341 C   0  0  2  0  0  0  0  0  0  0  0  0
    3.7849    1.0758   -0.0386 C   0  0  0  0  0  0  0  0  0  0  0  0
    3.9853    2.5840    0.0729 C   0  0  0  0  0  0  0  0  0  0  0  0
    3.0226    3.3836   -0.5514 O   0  0  0  0  0  0  0  0  0  0  0  0
    1.1088    0.9331   -0.2310 C   0  0  0  0  0  0  0  0  0  0  0  0
    1.0525    2.1482   -0.0111 O   0  0  0  0  0  0  0  0  0  0  0  0
   -0.1491    0.0881   -0.4657 C   0  0  0  0  0  0  0  0  0  0  0  0
   -0.0222   -1.2832   -0.7653 C   0  0  0  0  0  0  0  0  0  0  0  0
   -1.0280   -2.2086   -0.4647 C   0  0  0  0  0  0  0  0  0  0  0  0
   -2.2521   -1.7396   -0.0552 C   0  0  0  0  0  0  0  0  0  0  0  0
   -2.4515   -0.3687   -0.0271 C   0  0  0  0  0  0  0  0  0  0  0  0
   -1.4446    0.6052   -0.2291 C   0  0  0  0  0  0  0  0  0  0  0  0
   -1.7486    1.8396   -0.1889 O   0  5  0  0  0  0  0  0  0  0  0  0
    3.5014   -5.3344    1.0661 H   0  0  0  0  0  0  0  0  0  0  0  0
    3.7749   -5.8273   -0.6880 H   0  0  0  0  0  0  0  0  0  0  0  0
    2.5375   -5.5350    0.0000 H   0  0  0  0  0  0  0  0  0  0  0  0
    4.4318   -2.7679   -1.4733 H   0  0  0  0  0  0  0  0  0  0  0  0
    3.1773   -3.6239   -1.6521 H   0  0  0  0  0  0  0  0  0  0  0  0
    2.2675   -2.4489    2.1358 H   0  0  0  0  0  0  0  0  0  0  0  0
    4.7449   -0.9491    0.1058 H   0  0  0  0  0  0  0  0  0  0  0  0
    6.0101   -1.7713   -1.5880 H   0  0  0  0  0  0  0  0  0  0  0  0
    6.2784   -3.2260   -0.6740 H   0  0  0  0  0  0  0  0  0  0  0  0
    7.0970   -1.3385    1.1648 H   0  0  0  0  0  0  0  0  0  0  0  0
    6.6395    0.4032    0.0332 H   0  0  0  0  0  0  0  0  0  0  0  0
    7.2161   -0.1847   -1.5762 H   0  0  0  0  0  0  0  0  0  0  0  0
   10.3850   -0.1929   -0.7876 H   0  0  0  0  0  0  0  0  0  0  0  0
   10.1861    0.4902    1.1347 H   0  0  0  0  0  0  0  0  0  0  0  0
   10.5515    0.9191    0.0000 H   0  0  0  0  0  0  0  0  0  0  0  0
    8.5078    1.1422   -1.1347 H   0  0  0  0  0  0  0  0  0  0  0  0
    8.1403    0.9918    0.9762 H   0  0  0  0  0  0  0  0  0  0  0  0
    8.6606    1.7611    0.0000 H   0  0  0  0  0  0  0  0  0  0  0  0
   10.9116   -2.3468    1.4172 H   0  0  0  0  0  0  0  0  0  0  0  0
    8.1434   -3.1525   -1.0596 H   0  0  0  0  0  0  0  0  0  0  0  0
    8.7490   -3.3446    0.9450 H   0  0  0  0  0  0  0  0  0  0  0  0
    8.0682   -3.8754    0.0000 H   0  0  0  0  0  0  0  0  0  0  0  0
    9.7896   -3.4763   -1.6296 H   0  0  0  0  0  0  0  0  0  0  0  0
   10.6063   -3.3401   -0.1673 H   0  0  0  0  0  0  0  0  0  0  0  0
   10.7884   -2.0381   -1.3623 H   0  0  0  0  0  0  0  0  0  0  0  0
    2.5703   -0.4570   -0.8317 H   0  0  0  0  0  0  0  0  0  0  0  0
    4.4446    0.7029    0.7571 H   0  0  0  0  0  0  0  0  0  0  0  0
    4.2876    0.7939   -0.9787 H   0  0  0  0  0  0  0  0  0  0  0  0
    4.1312    2.8882    1.1149 H   0  0  0  0  0  0  0  0  0  0  0  0
    4.9300    2.8228   -0.4366 H   0  0  0  0  0  0  0  0  0  0  0  0
    2.1499    3.1542   -0.1449 H   0  0  0  0  0  0  0  0  0  0  0  0
    0.8833   -1.6510   -1.2185 H   0  0  0  0  0  0  0  0  0  0  0  0
   -0.8444   -3.2780   -0.5226 H   0  0  0  0  0  0  0  0  0  0  0  0
   -3.0657   -2.4093    0.2027 H   0  0  0  0  0  0  0  0  0  0  0  0
   -3.4540    0.0045    0.2029 H   0  0  0  0  0  0  0  0  0  0  0  0
  1  2  1  0  0  0  0
  1 38  1  0  0  0  0
  1 39  1  0  0  0  0
  1 40  1  0  0  0  0
  2  3  2  0  0  0  0
  2  4  1  0  0  0  0
  4  5  1  0  0  0  0
  4 41  1  0  0  0  0
  4 42  1  0  0  0  0
  5  6  2  0  0  0  0
  7  5  1  0  0  0  0
  7  8  1  0  0  0  0
  7 23  1  0  0  0  0
  7 43  1  6  0  0  0
  8  9  1  0  0  0  0
  9 10  2  0  0  0  0
  9 11  1  0  0  0  0
 11 12  1  0  0  0  0
 11 44  1  0  0  0  0
 12 45  1  0  0  0  0
 12 46  1  0  0  0  0
 13 12  1  0  0  0  0
 13 14  1  0  0  0  0
 13 20  1  0  0  0  0
 13 47  1  1  0  0  0
 14 15  1  0  0  0  0
 14 48  1  0  0  0  0
 14 49  1  0  0  0  0
 15 16  1  0  0  0  0
 15 17  1  0  0  0  0
 15 18  1  0  0  0  0
 16 50  1  0  0  0  0
 16 51  1  0  0  0  0
 16 52  1  0  0  0  0
 17 53  1  0  0  0  0
 17 54  1  0  0  0  0
 17 55  1  0  0  0  0
 18 19  1  0  0  0  0
 18 20  1  0  0  0  0
 19 56  1  0  0  0  0
 20 21  1  0  0  0  0
 20 22  1  0  0  0  0
 21 57  1  0  0  0  0
 21 58  1  0  0  0  0
 21 59  1  0  0  0  0
 22 60  1  0  0  0  0
 22 61  1  0  0  0  0
 22 62  1  0  0  0  0
 23 24  2  0  0  0  0
 23 25  1  0  0  0  0
 25 26  1  0  0  0  0
 25 29  1  0  0  0  0
 25 63  1  6  0  0  0
 26 27  1  0  0  0  0
 26 64  1  0  0  0  0
 26 65  1  0  0  0  0
 27 28  1  0  0  0  0
 27 66  1  0  0  0  0
 27 67  1  0  0  0  0
 28 68  1  0  0  0  0
 29 30  2  0  0  0  0
 29 31  1  0  0  0  0
 31 36  2  0  0  0  0
 31 32  1  0  0  0  0
 32 33  2  0  0  0  0
 32 69  1  0  0  0  0
 33 34  1  0  0  0  0
 33 70  1  0  0  0  0
 34 35  2  0  0  0  0
 34 71  1  0  0  0  0
 35 36  1  0  0  0  0
 35 72  1  0  0  0  0
 36 37  1  0  0  0  0
M  CHG  1  37  -1
M  END
$$$$
