
 OpenBabel03202621372D

 21 22  0  0  0  0  0  0  0  0999 V2000
    1.4945   -0.9706    0.0000 C   0  0  0  0  0  0  0  0  0  0  0  0
    0.5000   -0.8660    0.0000 C   0  0  0  0  0  0  0  0  0  0  0  0
   -0.4662   -1.8554   -0.0000 C   0  0  0  0  0  0  0  0  0  0  0  0
   -1.6944   -1.2465   -0.0000 N   0  0  0  0  0  0  0  0  0  0  0  0
   -2.9517   -1.9056   -0.0000 C   0  0  0  0  0  0  0  0  0  0  0  0
   -2.9356   -3.3229   -0.0000 C   0  0  0  0  0  0  0  0  0  0  0  0
   -4.1060   -4.0722    0.0000 C   0  0  0  0  0  0  0  0  0  0  0  0
   -5.3255   -3.4171    0.0000 C   0  0  0  0  0  0  0  0  0  0  0  0
   -5.3691   -2.0233    0.0000 C   0  0  0  0  0  0  0  0  0  0  0  0
   -4.1952   -1.2519   -0.0000 C   0  0  0  0  0  0  0  0  0  0  0  0
   -4.5584    0.8289   -0.0000 I   0  0  0  0  0  0  0  0  0  0  0  0
   -1.4983    0.0839   -0.0000 N   0  0  0  0  0  0  0  0  0  0  0  0
   -0.1941    0.3237   -0.0000 N   0  0  0  0  0  0  0  0  0  0  0  0
    1.7454   -2.0439    0.0000 H   0  0  0  0  0  0  0  0  0  0  0  0
    1.9395    0.0364    0.0000 H   0  0  0  0  0  0  0  0  0  0  0  0
    2.5586   -1.0825    0.0000 H   0  0  0  0  0  0  0  0  0  0  0  0
   -0.3294   -2.9214   -0.0000 H   0  0  0  0  0  0  0  0  0  0  0  0
   -2.0180   -3.9028   -0.0000 H   0  0  0  0  0  0  0  0  0  0  0  0
   -4.0553   -5.1582    0.0000 H   0  0  0  0  0  0  0  0  0  0  0  0
   -6.2496   -3.9894    0.0000 H   0  0  0  0  0  0  0  0  0  0  0  0
   -6.3464   -1.5430    0.0000 H   0  0  0  0  0  0  0  0  0  0  0  0
  1  2  1  0  0  0  0
  1 14  1  0  0  0  0
  1 15  1  0  0  0  0
  1 16  1  0  0  0  0
  2 13  1  0  0  0  0
  2  3  2  0  0  0  0
  3  4  1  0  0  0  0
  3 17  1  0  0  0  0
  4  5  1  0  0  0  0
  4 12  1  0  0  0  0
  5 10  2  0  0  0  0
  5  6  1  0  0  0  0
  6  7  2  0  0  0  0
  6 18  1  0  0  0  0
  7  8  1  0  0  0  0
  7 19  1  0  0  0  0
  8  9  2  0  0  0  0
  8 20  1  0  0  0  0
  9 10  1  0  0  0  0
  9 21  1  0  0  0  0
 10 11  1  0  0  0  0
 12 13  2  0  0  0  0
M  END
$$$$
