
 OpenBabel03202621372D

 23 24  0  0  0  0  0  0  0  0999 V2000
   -0.0933   -1.7796    0.0000 C   0  0  0  0  0  0  0  0  0  0  0  0
   -0.5000   -0.8660    0.0000 C   0  0  0  0  0  0  0  0  0  0  0  0
   -1.5959   -0.3776   -0.7025 C   0  0  0  0  0  0  0  0  0  0  0  0
   -1.9696    0.7634   -0.0491 N   0  0  0  0  0  0  0  0  0  0  0  0
   -3.1927    1.5414   -0.1698 C   0  0  0  0  0  0  0  0  0  0  0  0
   -4.4864    0.7683   -0.0344 C   0  0  0  0  0  0  0  0  0  0  0  0
   -4.6135   -0.5440    0.4378 C   0  0  0  0  0  0  0  0  0  0  0  0
   -5.8659   -1.1548    0.4862 C   0  0  0  0  0  0  0  0  0  0  0  0
   -6.9646   -0.4145    0.0946 C   0  0  0  0  0  0  0  0  0  0  0  0
   -8.5386   -1.0925    0.1100 Cl  0  0  0  0  0  0  0  0  0  0  0  0
   -6.9033    0.8632   -0.3239 N   0  0  0  0  0  0  0  0  0  0  0  0
   -5.6738    1.4226   -0.3726 C   0  0  0  0  0  0  0  0  0  0  0  0
   -1.0338    1.1308    0.8316 N   0  0  0  0  0  0  0  0  0  0  0  0
   -0.1435    0.1532    0.8827 N   0  0  0  0  0  0  0  0  0  0  0  0
   -0.3418   -2.0986    1.0405 H   0  0  0  0  0  0  0  0  0  0  0  0
    0.9856   -1.5094   -0.0872 H   0  0  0  0  0  0  0  0  0  0  0  0
    0.3419   -2.7571    0.0000 H   0  0  0  0  0  0  0  0  0  0  0  0
   -2.2110   -0.8201   -1.4730 H   0  0  0  0  0  0  0  0  0  0  0  0
   -3.1654    2.3167    0.6060 H   0  0  0  0  0  0  0  0  0  0  0  0
   -3.1403    2.0242   -1.1521 H   0  0  0  0  0  0  0  0  0  0  0  0
   -3.7519   -1.1179    0.7709 H   0  0  0  0  0  0  0  0  0  0  0  0
   -5.9735   -2.1812    0.8200 H   0  0  0  0  0  0  0  0  0  0  0  0
   -5.6729    2.4602   -0.7038 H   0  0  0  0  0  0  0  0  0  0  0  0
  1  2  1  0  0  0  0
  1 15  1  0  0  0  0
  1 16  1  0  0  0  0
  1 17  1  0  0  0  0
  2 14  1  0  0  0  0
  2  3  2  0  0  0  0
  3  4  1  0  0  0  0
  3 18  1  0  0  0  0
  4  5  1  0  0  0  0
  4 13  1  0  0  0  0
  5  6  1  0  0  0  0
  5 19  1  0  0  0  0
  5 20  1  0  0  0  0
  6 12  2  0  0  0  0
  6  7  1  0  0  0  0
  7  8  2  0  0  0  0
  7 21  1  0  0  0  0
  8  9  1  0  0  0  0
  8 22  1  0  0  0  0
  9 10  1  0  0  0  0
  9 11  2  0  0  0  0
 11 12  1  0  0  0  0
 12 23  1  0  0  0  0
 13 14  2  0  0  0  0
M  END
$$$$
