
 OpenBabel03202621372D

 28 29  0  0  0  0  0  0  0  0999 V2000
   -0.0933   -1.7796    0.0000 C   0  0  0  0  0  0  0  0  0  0  0  0
   -0.5000   -0.8660    0.0000 C   0  0  0  0  0  0  0  0  0  0  0  0
   -1.6090   -0.3371    0.6467 C   0  0  0  0  0  0  0  0  0  0  0  0
   -1.9135    0.8158   -0.0286 N   0  0  0  0  0  0  0  0  0  0  0  0
   -3.1027    1.6551    0.0004 C   0  0  0  0  0  0  0  0  0  0  0  0
   -4.4376    0.9399    0.0899 C   0  0  0  0  0  0  0  0  0  0  0  0
   -4.6482   -0.3937   -0.2957 C   0  0  0  0  0  0  0  0  0  0  0  0
   -5.8851   -1.0115   -0.0829 C   0  0  0  0  0  0  0  0  0  0  0  0
   -6.9420   -0.2795    0.4430 C   0  0  0  0  0  0  0  0  0  0  0  0
   -8.0995   -0.9106    0.7997 O   0  0  0  0  0  0  0  0  0  0  0  0
   -9.0462   -0.9099   -0.2591 C   0  0  0  0  0  0  0  0  0  0  0  0
  -10.1987   -1.4392    0.2012 F   0  0  0  0  0  0  0  0  0  0  0  0
   -8.6153   -1.6637   -1.2925 F   0  0  0  0  0  0  0  0  0  0  0  0
   -9.3039    0.3458   -0.6917 F   0  0  0  0  0  0  0  0  0  0  0  0
   -6.7832    1.0695    0.7437 C   0  0  0  0  0  0  0  0  0  0  0  0
   -5.5402    1.6770    0.5566 C   0  0  0  0  0  0  0  0  0  0  0  0
   -0.9155    1.1542   -0.8526 N   0  0  0  0  0  0  0  0  0  0  0  0
   -0.0680    0.1443   -0.8670 N   0  0  0  0  0  0  0  0  0  0  0  0
   -0.4186   -2.1286   -1.0091 H   0  0  0  0  0  0  0  0  0  0  0  0
    0.9926   -1.5219    0.0086 H   0  0  0  0  0  0  0  0  0  0  0  0
    0.3419   -2.7571    0.0000 H   0  0  0  0  0  0  0  0  0  0  0  0
   -2.2742   -0.7504    1.3924 H   0  0  0  0  0  0  0  0  0  0  0  0
   -2.9687    2.3174    0.8637 H   0  0  0  0  0  0  0  0  0  0  0  0
   -3.0996    2.2632   -0.9123 H   0  0  0  0  0  0  0  0  0  0  0  0
   -3.8497   -0.9901   -0.7321 H   0  0  0  0  0  0  0  0  0  0  0  0
   -6.0046   -2.0682   -0.3122 H   0  0  0  0  0  0  0  0  0  0  0  0
   -7.6116    1.6486    1.1441 H   0  0  0  0  0  0  0  0  0  0  0  0
   -5.4319    2.7330    0.8015 H   0  0  0  0  0  0  0  0  0  0  0  0
  1  2  1  0  0  0  0
  1 19  1  0  0  0  0
  1 20  1  0  0  0  0
  1 21  1  0  0  0  0
  2 18  1  0  0  0  0
  2  3  2  0  0  0  0
  3  4  1  0  0  0  0
  3 22  1  0  0  0  0
  4  5  1  0  0  0  0
  4 17  1  0  0  0  0
  5  6  1  0  0  0  0
  5 23  1  0  0  0  0
  5 24  1  0  0  0  0
  6 16  2  0  0  0  0
  6  7  1  0  0  0  0
  7  8  2  0  0  0  0
  7 25  1  0  0  0  0
  8  9  1  0  0  0  0
  8 26  1  0  0  0  0
  9 10  1  0  0  0  0
  9 15  2  0  0  0  0
 10 11  1  0  0  0  0
 11 12  1  0  0  0  0
 11 13  1  0  0  0  0
 11 14  1  0  0  0  0
 15 16  1  0  0  0  0
 15 27  1  0  0  0  0
 16 28  1  0  0  0  0
 17 18  2  0  0  0  0
M  END
$$$$
