
 OpenBabel03202621302D

 29 29  0  0  0  0  0  0  0  0999 V2000
    0.8090    1.5878    0.0000 C   0  0  0  0  0  0  0  0  0  0  0  0
    0.8090    0.5878    0.0000 C   0  0  0  0  0  0  0  0  0  0  0  0
    1.0138   -0.3704   -0.9764 C   0  0  0  0  0  0  0  0  0  0  0  0
    0.6564   -1.5643   -0.4052 N   0  0  0  0  0  0  0  0  0  0  0  0
    0.9086   -2.9013   -0.8946 C   0  0  0  0  0  0  0  0  0  0  0  0
    2.3189   -3.0476   -1.0200 O   0  0  0  0  0  0  0  0  0  0  0  0
    3.0079   -3.0060    0.1616 C   0  0  0  0  0  0  0  0  0  0  0  0
    2.5383   -3.3962    1.2263 O   0  0  0  0  0  0  0  0  0  0  0  0
    4.4736   -2.3600    0.0000 C   0  0  0  0  0  0  0  0  0  0  0  0
    4.5734   -2.3090   -1.7514 C   0  0  0  0  0  0  0  0  0  0  0  0
    4.3691   -1.3655    0.0000 C   0  0  0  0  0  0  0  0  0  0  0  0
    5.0614   -3.1691    0.0000 C   0  0  0  0  0  0  0  0  0  0  0  0
    0.2380   -1.3971    0.8482 N   0  0  0  0  0  0  0  0  0  0  0  0
    0.3697   -0.1190    1.1283 N   0  0  0  0  0  0  0  0  0  0  0  0
    1.5022    1.7803    0.8528 H   0  0  0  0  0  0  0  0  0  0  0  0
   -0.2543    1.7916    0.2733 H   0  0  0  0  0  0  0  0  0  0  0  0
    0.8090    2.6578    0.0000 H   0  0  0  0  0  0  0  0  0  0  0  0
    1.3455   -0.3066   -2.0035 H   0  0  0  0  0  0  0  0  0  0  0  0
    0.4560   -2.9787   -1.8872 H   0  0  0  0  0  0  0  0  0  0  0  0
    0.4684   -3.6534   -0.2328 H   0  0  0  0  0  0  0  0  0  0  0  0
    4.4342   -3.3037   -2.2077 H   0  0  0  0  0  0  0  0  0  0  0  0
    3.8245   -1.6344   -2.2005 H   0  0  0  0  0  0  0  0  0  0  0  0
    5.5642   -1.9375   -2.0736 H   0  0  0  0  0  0  0  0  0  0  0  0
    5.4312   -1.0014    0.1230 H   0  0  0  0  0  0  0  0  0  0  0  0
    3.9513   -1.2072    1.0328 H   0  0  0  0  0  0  0  0  0  0  0  0
    4.2573   -0.3014    0.0000 H   0  0  0  0  0  0  0  0  0  0  0  0
    5.0277   -3.4306    1.0956 H   0  0  0  0  0  0  0  0  0  0  0  0
    6.1037   -2.7376   -0.0946 H   0  0  0  0  0  0  0  0  0  0  0  0
    5.6903   -4.0348    0.0000 H   0  0  0  0  0  0  0  0  0  0  0  0
  1  2  1  0  0  0  0
  1 15  1  0  0  0  0
  1 16  1  0  0  0  0
  1 17  1  0  0  0  0
  2 14  1  0  0  0  0
  2  3  2  0  0  0  0
  3  4  1  0  0  0  0
  3 18  1  0  0  0  0
  4  5  1  0  0  0  0
  4 13  1  0  0  0  0
  5  6  1  0  0  0  0
  5 19  1  0  0  0  0
  5 20  1  0  0  0  0
  6  7  1  0  0  0  0
  7  8  2  0  0  0  0
  7  9  1  0  0  0  0
  9 10  1  0  0  0  0
  9 11  1  0  0  0  0
  9 12  1  0  0  0  0
 10 21  1  0  0  0  0
 10 22  1  0  0  0  0
 10 23  1  0  0  0  0
 11 24  1  0  0  0  0
 11 25  1  0  0  0  0
 11 26  1  0  0  0  0
 12 27  1  0  0  0  0
 12 28  1  0  0  0  0
 12 29  1  0  0  0  0
 13 14  2  0  0  0  0
M  END
$$$$
