
 OpenBabel03202621392D

 11 10  0  0  0  0  0  0  0  0999 V2000
    1.7321    1.0000    0.0000 C   0  0  0  0  0  0  0  0  0  0  0  0
    0.8660    1.5000    0.0000 S   0  0  0  0  0  0  0  0  0  0  0  0
    0.0000    1.0000    0.0000 C   0  0  0  0  0  0  0  0  0  0  0  0
   -0.8660    1.5000    0.0000 C   0  0  0  0  0  0  0  0  0  0  0  0
   -0.2167   -0.2407    0.0000 O   0  0  0  0  0  0  0  0  0  0  0  0
    1.7137   -0.1195   -0.0000 H   0  0  0  0  0  0  0  0  0  0  0  0
    2.5229    1.7658   -0.0000 H   0  0  0  0  0  0  0  0  0  0  0  0
    2.6588    0.4650    0.0000 H   0  0  0  0  0  0  0  0  0  0  0  0
   -0.8048    2.6616    0.0000 H   0  0  0  0  0  0  0  0  0  0  0  0
   -1.7418    0.7903    0.0000 H   0  0  0  0  0  0  0  0  0  0  0  0
   -1.7926    2.0350    0.0000 H   0  0  0  0  0  0  0  0  0  0  0  0
  1  2  1  0  0  0  0
  1  6  1  0  0  0  0
  1  7  1  0  0  0  0
  1  8  1  0  0  0  0
  2  3  1  0  0  0  0
  3  4  1  0  0  0  0
  3  5  2  0  0  0  0
  4  9  1  0  0  0  0
  4 10  1  0  0  0  0
  4 11  1  0  0  0  0
M  END
$$$$
