
 OpenBabel03202621382D

 50 51  0  0  1  0  0  0  0  0999 V2000
    2.4641    4.7321    0.0000 C   0  0  0  0  0  0  0  0  0  0  0  0
    1.9641    3.8660    0.0000 C   0  0  0  0  0  0  0  0  0  0  0  0
    0.6988    3.9151    0.0039 O   0  0  0  0  0  0  0  0  0  0  0  0
    2.4641    3.0000    0.0000 C   0  0  0  0  0  0  0  0  0  0  0  0
    3.4641    3.0000    0.0000 C   0  0  3  0  0  0  0  0  0  0  0  0
    3.4641    4.0000    0.0000 O   0  0  0  0  0  0  0  0  0  0  0  0
    4.4641    3.0000    0.0000 C   0  0  0  0  0  0  0  0  0  0  0  0
    5.5297    2.6187    0.9714 C   0  0  0  0  0  0  0  0  0  0  0  0
    6.7948    2.6985    0.4379 N   0  0  0  0  0  0  0  0  0  0  0  0
    6.7937    3.5496   -0.6154 C   0  0  0  0  0  0  0  0  0  0  0  0
    5.4905    3.7051   -1.0151 C   0  0  0  0  0  0  0  0  0  0  0  0
    5.0503    4.7756   -2.2972 Cl  0  0  0  0  0  0  0  0  0  0  0  0
    3.4641    2.0000    0.0000 C   0  0  2  0  0  0  0  0  0  0  0  0
    3.3092    1.4053   -1.5161 O   0  0  0  0  0  0  0  0  0  0  0  0
    2.6290    0.7932    0.9947 C   0  0  0  0  0  0  0  0  0  0  0  0
    2.5908    0.9794    2.2236 O   0  0  0  0  0  0  0  0  0  0  0  0
    2.2777   -0.5891    0.4167 C   0  0  2  0  0  0  0  0  0  0  0  0
    3.6201   -1.2711    0.0756 C   0  0  0  0  0  0  0  0  0  0  0  0
    3.6337   -2.7635    0.1817 C   0  0  0  0  0  0  0  0  0  0  0  0
    4.9897   -3.1741    0.0255 O   0  0  0  0  0  0  0  0  0  0  0  0
    1.2765   -0.6649   -0.7359 C   0  0  0  0  0  0  0  0  0  0  0  0
    1.5954   -1.0677   -1.8574 O   0  0  0  0  0  0  0  0  0  0  0  0
   -0.1228   -0.2020   -0.5008 C   0  0  0  0  0  0  0  0  0  0  0  0
   -0.4168    1.0895   -0.9813 C   0  0  0  0  0  0  0  0  0  0  0  0
   -1.6320    1.6932   -0.7389 C   0  0  0  0  0  0  0  0  0  0  0  0
   -2.6308    0.9584   -0.1278 C   0  0  0  0  0  0  0  0  0  0  0  0
   -2.3796   -0.3709    0.2589 C   0  0  0  0  0  0  0  0  0  0  0  0
   -1.1062   -1.0021    0.1265 C   0  0  0  0  0  0  0  0  0  0  0  0
   -0.9189   -2.1988    0.5451 O   0  5  0  0  0  0  0  0  0  0  0  0
    1.9897    5.2119   -0.9334 H   0  0  0  0  0  0  0  0  0  0  0  0
    1.9731    5.2249    0.9184 H   0  0  0  0  0  0  0  0  0  0  0  0
    2.9991    5.6588    0.0000 H   0  0  0  0  0  0  0  0  0  0  0  0
    1.9094    2.6643    0.9686 H   0  0  0  0  0  0  0  0  0  0  0  0
    1.8434    2.5245   -0.8491 H   0  0  0  0  0  0  0  0  0  0  0  0
    4.0437    4.4977    0.7502 H   0  0  0  0  0  0  0  0  0  0  0  0
    5.4096    2.0817    1.9103 H   0  0  0  0  0  0  0  0  0  0  0  0
    7.6261    2.2862    0.8457 H   0  0  0  0  0  0  0  0  0  0  0  0
    7.7122    3.9662   -1.0097 H   0  0  0  0  0  0  0  0  0  0  0  0
    4.2880    1.1752    0.1444 H   0  0  0  0  0  0  0  0  0  0  0  0
    4.1933    1.0920   -1.7790 H   0  0  0  0  0  0  0  0  0  0  0  0
    1.8245   -1.1519    1.2503 H   0  0  0  0  0  0  0  0  0  0  0  0
    4.4110   -0.8965    0.7418 H   0  0  0  0  0  0  0  0  0  0  0  0
    3.9505   -0.9999   -0.9344 H   0  0  0  0  0  0  0  0  0  0  0  0
    3.2847   -3.1143    1.1659 H   0  0  0  0  0  0  0  0  0  0  0  0
    3.0240   -3.2480   -0.5998 H   0  0  0  0  0  0  0  0  0  0  0  0
    4.9843   -4.1716   -0.0078 H   0  0  0  0  0  0  0  0  0  0  0  0
    0.3238    1.6151   -1.5693 H   0  0  0  0  0  0  0  0  0  0  0  0
   -1.7912    2.7277   -1.0243 H   0  0  0  0  0  0  0  0  0  0  0  0
   -3.6088    1.3952    0.0404 H   0  0  0  0  0  0  0  0  0  0  0  0
   -3.2034   -0.9440    0.6738 H   0  0  0  0  0  0  0  0  0  0  0  0
  1  2  1  0  0  0  0
  1 30  1  0  0  0  0
  1 31  1  0  0  0  0
  1 32  1  0  0  0  0
  2  3  2  0  0  0  0
  2  4  1  0  0  0  0
  4  5  1  0  0  0  0
  4 33  1  0  0  0  0
  4 34  1  0  0  0  0
  5  6  1  0  0  0  0
  5  7  1  0  0  0  0
  5 13  1  0  0  0  0
  6 35  1  0  0  0  0
  7 11  1  0  0  0  0
  7  8  2  0  0  0  0
  8  9  1  0  0  0  0
  8 36  1  0  0  0  0
  9 10  1  0  0  0  0
  9 37  1  0  0  0  0
 10 11  2  0  0  0  0
 10 38  1  0  0  0  0
 11 12  1  0  0  0  0
 13 14  1  0  0  0  0
 13 15  1  0  0  0  0
 13 39  1  1  0  0  0
 14 40  1  0  0  0  0
 15 16  2  0  0  0  0
 15 17  1  0  0  0  0
 17 18  1  0  0  0  0
 17 21  1  0  0  0  0
 17 41  1  1  0  0  0
 18 19  1  0  0  0  0
 18 42  1  0  0  0  0
 18 43  1  0  0  0  0
 19 20  1  0  0  0  0
 19 44  1  0  0  0  0
 19 45  1  0  0  0  0
 20 46  1  0  0  0  0
 21 22  2  0  0  0  0
 21 23  1  0  0  0  0
 23 28  2  0  0  0  0
 23 24  1  0  0  0  0
 24 25  2  0  0  0  0
 24 47  1  0  0  0  0
 25 26  1  0  0  0  0
 25 48  1  0  0  0  0
 26 27  2  0  0  0  0
 26 49  1  0  0  0  0
 27 28  1  0  0  0  0
 27 50  1  0  0  0  0
 28 29  1  0  0  0  0
M  CHG  1  29  -1
M  END
$$$$
