
 OpenBabel03202621372D

 13 12  0  0  0  0  0  0  0  0999 V2000
    2.5981    2.5000    0.0000 C   0  0  0  0  0  0  0  0  0  0  0  0
    1.7321    3.0000    0.0000 S   0  0  0  0  0  0  0  0  0  0  0  0
    0.4279    1.7856    0.4070 C   0  0  0  0  0  0  0  0  0  0  0  0
    0.7816    0.3434    0.2102 C   0  0  0  0  0  0  0  0  0  0  0  0
   -0.1135   -0.5792   -0.1625 C   0  0  0  0  0  0  0  0  0  0  0  0
   -1.3973   -0.2377   -0.3863 F   0  0  0  0  0  0  0  0  0  0  0  0
    0.2684   -1.8681   -0.2658 F   0  0  0  0  0  0  0  0  0  0  0  0
    2.7886    2.4815   -1.0910 H   0  0  0  0  0  0  0  0  0  0  0  0
    3.2463    3.2797    0.4432 H   0  0  0  0  0  0  0  0  0  0  0  0
    3.5247    1.9650    0.0000 H   0  0  0  0  0  0  0  0  0  0  0  0
   -0.4440    2.0542   -0.2032 H   0  0  0  0  0  0  0  0  0  0  0  0
    0.1479    1.9455    1.4549 H   0  0  0  0  0  0  0  0  0  0  0  0
    1.7861    0.0046    0.4259 H   0  0  0  0  0  0  0  0  0  0  0  0
  1  2  1  0  0  0  0
  1  8  1  0  0  0  0
  1  9  1  0  0  0  0
  1 10  1  0  0  0  0
  2  3  1  0  0  0  0
  3  4  1  0  0  0  0
  3 11  1  0  0  0  0
  3 12  1  0  0  0  0
  4  5  2  0  0  0  0
  4 13  1  0  0  0  0
  5  6  1  0  0  0  0
  5  7  1  0  0  0  0
M  END
$$$$
