
 OpenBabel03202621322D

 17 17  0  0  0  0  0  0  0  0999 V2000
   -0.1280   -2.6736    0.0000 C   0  0  0  0  0  0  0  0  0  0  0  0
    0.2788   -1.7601    0.0000 C   0  0  0  0  0  0  0  0  0  0  0  0
    0.2762   -0.4457    0.0000 C   0  0  0  0  0  0  0  0  0  0  0  0
   -0.9298   -0.4576    0.0000 N   0  0  0  0  0  0  0  0  0  0  0  0
   -1.0018    0.7461   -0.0000 C   0  0  0  0  0  0  0  0  0  0  0  0
   -2.5691    0.3090    0.0000 S   0  0  0  0  0  0  0  0  0  0  0  0
   -2.7770    1.2872    0.0000 C   0  0  0  0  0  0  0  0  0  0  0  0
    0.0048    1.6151   -0.0000 N   0  0  0  0  0  0  0  0  0  0  0  0
    1.0413    0.6440   -0.0000 O   0  0  0  0  0  0  0  0  0  0  0  0
   -1.2243   -2.5594   -0.0000 H   0  0  0  0  0  0  0  0  0  0  0  0
    0.5771   -3.5680   -0.0000 H   0  0  0  0  0  0  0  0  0  0  0  0
   -0.5633   -3.6511    0.0000 H   0  0  0  0  0  0  0  0  0  0  0  0
    1.2890   -2.2706    0.0000 H   0  0  0  0  0  0  0  0  0  0  0  0
    1.3401   -1.3650   -0.0000 H   0  0  0  0  0  0  0  0  0  0  0  0
   -2.0759    2.1759    0.0000 H   0  0  0  0  0  0  0  0  0  0  0  0
   -3.8781    1.3263    0.0000 H   0  0  0  0  0  0  0  0  0  0  0  0
   -2.9994    2.3338    0.0000 H   0  0  0  0  0  0  0  0  0  0  0  0
  1  2  1  0  0  0  0
  1 10  1  0  0  0  0
  1 11  1  0  0  0  0
  1 12  1  0  0  0  0
  2  3  1  0  0  0  0
  2 13  1  0  0  0  0
  2 14  1  0  0  0  0
  3  9  1  0  0  0  0
  3  4  2  0  0  0  0
  4  5  1  0  0  0  0
  5  6  1  0  0  0  0
  5  8  2  0  0  0  0
  6  7  1  0  0  0  0
  7 15  1  0  0  0  0
  7 16  1  0  0  0  0
  7 17  1  0  0  0  0
  8  9  1  0  0  0  0
M  END
$$$$
