
 OpenBabel03202621372D

 27 28  0  0  0  0  0  0  0  0999 V2000
    3.4641    0.0000    0.0000 C   0  0  0  0  0  0  0  0  0  0  0  0
    2.5981   -0.5000    0.0000 O   0  0  0  0  0  0  0  0  0  0  0  0
    2.0592    0.3452   -1.0223 C   0  0  0  0  0  0  0  0  0  0  0  0
    2.5266    1.2713   -1.6643 O   0  0  0  0  0  0  0  0  0  0  0  0
    0.6693    0.0565   -0.9342 C   0  0  0  0  0  0  0  0  0  0  0  0
    0.5600   -1.2809   -0.5787 C   0  0  0  0  0  0  0  0  0  0  0  0
    1.3091   -2.2319   -1.1599 F   0  0  0  0  0  0  0  0  0  0  0  0
   -0.0745   -1.4965    0.5851 C   0  0  0  0  0  0  0  0  0  0  0  0
   -0.0321   -2.7114    1.1520 F   0  0  0  0  0  0  0  0  0  0  0  0
   -1.1816   -0.6880    0.6957 C   0  0  0  0  0  0  0  0  0  0  0  0
   -2.1565   -1.2325   -0.1654 N   0  0  0  0  0  0  0  0  0  0  0  0
   -2.0235   -2.4545   -0.8138 C   0  0  0  0  0  0  0  0  0  0  0  0
   -2.8147   -3.2024    0.0000 C   0  0  0  0  0  0  0  0  0  0  0  0
   -3.2215   -4.1160    0.0000 C   0  0  0  0  0  0  0  0  0  0  0  0
   -3.7632   -2.2372    0.5133 N   0  0  0  0  0  0  0  0  0  0  0  0
   -3.4198   -1.0285    0.1514 N   0  0  0  0  0  0  0  0  0  0  0  0
   -1.1165    0.6816    0.4486 C   0  0  0  0  0  0  0  0  0  0  0  0
   -2.0718    1.5208    0.8494 F   0  0  0  0  0  0  0  0  0  0  0  0
   -0.1191    1.0762   -0.3980 C   0  0  0  0  0  0  0  0  0  0  0  0
    0.0774    2.3653   -0.6652 F   0  0  0  0  0  0  0  0  0  0  0  0
    4.1614   -0.8508   -0.1602 H   0  0  0  0  0  0  0  0  0  0  0  0
    3.5202    0.2614    1.0793 H   0  0  0  0  0  0  0  0  0  0  0  0
    4.3907    0.5350    0.0000 H   0  0  0  0  0  0  0  0  0  0  0  0
   -1.2693   -2.7293   -1.5340 H   0  0  0  0  0  0  0  0  0  0  0  0
   -3.8724   -4.1243    0.9160 H   0  0  0  0  0  0  0  0  0  0  0  0
   -2.3205   -4.6893    0.3306 H   0  0  0  0  0  0  0  0  0  0  0  0
   -3.6567   -5.0935    0.0000 H   0  0  0  0  0  0  0  0  0  0  0  0
  1  2  1  0  0  0  0
  1 21  1  0  0  0  0
  1 22  1  0  0  0  0
  1 23  1  0  0  0  0
  2  3  1  0  0  0  0
  3  4  2  0  0  0  0
  3  5  1  0  0  0  0
  5 19  2  0  0  0  0
  5  6  1  0  0  0  0
  6  7  1  0  0  0  0
  6  8  2  0  0  0  0
  8  9  1  0  0  0  0
  8 10  1  0  0  0  0
 10 11  1  0  0  0  0
 10 17  2  0  0  0  0
 11 16  1  0  0  0  0
 11 12  1  0  0  0  0
 12 13  2  0  0  0  0
 12 24  1  0  0  0  0
 13 14  1  0  0  0  0
 13 15  1  0  0  0  0
 14 25  1  0  0  0  0
 14 26  1  0  0  0  0
 14 27  1  0  0  0  0
 15 16  2  0  0  0  0
 17 18  1  0  0  0  0
 17 19  1  0  0  0  0
 19 20  1  0  0  0  0
M  END
$$$$
