
 OpenBabel03202621392D

 58 60  0  0  1  0  0  0  0  0999 V2000
   -1.2830   -6.4499   -0.0328 C   0  0  0  0  0  0  0  0  0  0  0  0
   -0.0053   -5.6612   -0.1763 C   0  0  0  0  0  0  0  0  0  0  0  0
    1.0648   -6.2348   -0.4070 O   0  0  0  0  0  0  0  0  0  0  0  0
   -0.0731   -4.1523   -0.1965 C   0  0  0  0  0  0  0  0  0  0  0  0
   -0.6012   -3.5177    1.0841 C   0  0  0  0  0  0  0  0  0  0  0  0
   -1.0145   -4.2132    2.0106 O   0  0  0  0  0  0  0  0  0  0  0  0
   -0.7959   -1.9854    1.1523 C   0  0  1  0  0  0  0  0  0  0  0  0
   -2.3275   -1.6329    0.9325 C   0  0  0  0  0  0  0  0  0  0  0  0
   -2.9924   -1.2213    1.8910 O   0  0  0  0  0  0  0  0  0  0  0  0
   -3.0297   -1.8736   -0.4171 C   0  0  2  0  0  0  0  0  0  0  0  0
   -3.3567   -3.3749   -0.6179 C   0  0  0  0  0  0  0  0  0  0  0  0
   -4.6836   -3.9479   -0.1241 C   0  0  0  0  0  0  0  0  0  0  0  0
   -4.5250   -5.3699   -0.0853 O   0  0  0  0  0  0  0  0  0  0  0  0
   -4.2848   -1.0113   -0.7021 C   0  0  0  0  0  0  0  0  0  0  0  0
   -5.2534   -1.4835   -1.2974 O   0  0  0  0  0  0  0  0  0  0  0  0
   -4.2888    0.4608   -0.4554 C   0  0  0  0  0  0  0  0  0  0  0  0
   -3.1249    1.1907   -0.6923 C   0  0  0  0  0  0  0  0  0  0  0  0
   -3.0795    2.5661   -0.4541 C   0  0  0  0  0  0  0  0  0  0  0  0
   -4.2240    3.2434   -0.0518 C   0  0  0  0  0  0  0  0  0  0  0  0
   -5.4190    2.5455    0.1052 C   0  0  0  0  0  0  0  0  0  0  0  0
   -5.4496    1.1580   -0.0835 C   0  0  0  0  0  0  0  0  0  0  0  0
   -6.6298    0.4982    0.1170 O   0  0  0  0  0  0  0  0  0  0  0  0
    0.2246   -1.2730    0.3643 N   0  0  0  0  0  0  0  0  0  0  0  0
    1.5406   -1.5196    0.6205 C   0  0  0  0  0  0  0  0  0  0  0  0
    1.9772   -2.4222    1.3167 O   0  0  0  0  0  0  0  0  0  0  0  0
    2.3452   -0.5751    0.0616 O   0  0  0  0  0  0  0  0  0  0  0  0
    1.5184    0.4836   -0.4144 C   0  0  2  0  0  0  0  0  0  0  0  0
    2.0868    1.8537   -0.1207 C   0  0  0  0  0  0  0  0  0  0  0  0
    3.4691    2.0475    0.0463 C   0  0  0  0  0  0  0  0  0  0  0  0
    4.0038    3.3345    0.1850 C   0  0  0  0  0  0  0  0  0  0  0  0
    3.1672    4.4472    0.1563 C   0  0  0  0  0  0  0  0  0  0  0  0
    1.7972    4.2758   -0.0047 C   0  0  0  0  0  0  0  0  0  0  0  0
    1.2661    2.9934   -0.1518 C   0  0  0  0  0  0  0  0  0  0  0  0
    0.2306    0.0783    0.2593 C   0  0  0  0  0  0  0  0  0  0  0  0
   -0.6405    0.8127    0.6994 O   0  0  0  0  0  0  0  0  0  0  0  0
   -1.8691   -6.1079    0.8188 H   0  0  0  0  0  0  0  0  0  0  0  0
   -1.0430   -7.5018    0.1340 H   0  0  0  0  0  0  0  0  0  0  0  0
   -1.8697   -6.3553   -0.9499 H   0  0  0  0  0  0  0  0  0  0  0  0
    0.9381   -3.8029   -0.4007 H   0  0  0  0  0  0  0  0  0  0  0  0
   -0.6846   -3.8503   -1.0559 H   0  0  0  0  0  0  0  0  0  0  0  0
   -0.5865   -1.7131    2.1975 H   0  0  0  0  0  0  0  0  0  0  0  0
   -2.2989   -1.5989   -1.1881 H   0  0  0  0  0  0  0  0  0  0  0  0
   -3.2642   -3.6136   -1.6862 H   0  0  0  0  0  0  0  0  0  0  0  0
   -2.6000   -3.9800   -0.1353 H   0  0  0  0  0  0  0  0  0  0  0  0
   -5.5039   -3.7465   -0.8163 H   0  0  0  0  0  0  0  0  0  0  0  0
   -4.9373   -3.6009    0.8800 H   0  0  0  0  0  0  0  0  0  0  0  0
   -5.3937   -5.7438    0.1467 H   0  0  0  0  0  0  0  0  0  0  0  0
   -2.2334    0.7060   -1.0666 H   0  0  0  0  0  0  0  0  0  0  0  0
   -2.1461    3.1068   -0.5777 H   0  0  0  0  0  0  0  0  0  0  0  0
   -4.1839    4.3140    0.1328 H   0  0  0  0  0  0  0  0  0  0  0  0
   -6.3122    3.0971    0.3842 H   0  0  0  0  0  0  0  0  0  0  0  0
   -7.3180    1.1324    0.3756 H   0  0  0  0  0  0  0  0  0  0  0  0
    1.4104    0.3739   -1.5030 H   0  0  0  0  0  0  0  0  0  0  0  0
    4.1546    1.2022    0.0534 H   0  0  0  0  0  0  0  0  0  0  0  0
    5.0759    3.4680    0.3036 H   0  0  0  0  0  0  0  0  0  0  0  0
    3.5835    5.4471    0.2539 H   0  0  0  0  0  0  0  0  0  0  0  0
    1.1397    5.1409   -0.0275 H   0  0  0  0  0  0  0  0  0  0  0  0
    0.1934    2.9023   -0.2998 H   0  0  0  0  0  0  0  0  0  0  0  0
  1  2  1  0  0  0  0
  1 36  1  0  0  0  0
  1 37  1  0  0  0  0
  1 38  1  0  0  0  0
  2  3  2  0  0  0  0
  2  4  1  0  0  0  0
  4  5  1  0  0  0  0
  4 39  1  0  0  0  0
  4 40  1  0  0  0  0
  5  6  2  0  0  0  0
  7  5  1  0  0  0  0
  7  8  1  0  0  0  0
  7 23  1  0  0  0  0
  7 41  1  6  0  0  0
  8  9  2  0  0  0  0
  8 10  1  0  0  0  0
 10 11  1  0  0  0  0
 10 14  1  0  0  0  0
 10 42  1  1  0  0  0
 11 12  1  0  0  0  0
 11 43  1  0  0  0  0
 11 44  1  0  0  0  0
 12 13  1  0  0  0  0
 12 45  1  0  0  0  0
 12 46  1  0  0  0  0
 13 47  1  0  0  0  0
 14 15  2  0  0  0  0
 14 16  1  0  0  0  0
 16 21  2  0  0  0  0
 16 17  1  0  0  0  0
 17 18  2  0  0  0  0
 17 48  1  0  0  0  0
 18 19  1  0  0  0  0
 18 49  1  0  0  0  0
 19 20  2  0  0  0  0
 19 50  1  0  0  0  0
 20 21  1  0  0  0  0
 20 51  1  0  0  0  0
 21 22  1  0  0  0  0
 22 52  1  0  0  0  0
 23 34  1  0  0  0  0
 23 24  1  0  0  0  0
 24 25  2  0  0  0  0
 24 26  1  0  0  0  0
 26 27  1  0  0  0  0
 27 28  1  0  0  0  0
 27 34  1  0  0  0  0
 27 53  1  6  0  0  0
 28 33  2  0  0  0  0
 28 29  1  0  0  0  0
 29 30  2  0  0  0  0
 29 54  1  0  0  0  0
 30 31  1  0  0  0  0
 30 55  1  0  0  0  0
 31 32  2  0  0  0  0
 31 56  1  0  0  0  0
 32 33  1  0  0  0  0
 32 57  1  0  0  0  0
 33 58  1  0  0  0  0
 34 35  2  0  0  0  0
M  END
$$$$
