
 OpenBabel03202621302D

 20 20  0  0  1  0  0  0  0  0999 V2000
   -2.4953   -1.3826    0.1076 N   0  0  0  0  0  0  0  0  0  0  0  0
   -1.2227   -1.8832    0.1835 C   0  0  0  0  0  0  0  0  0  0  0  0
   -1.0526   -3.0229    0.6129 O   0  0  0  0  0  0  0  0  0  0  0  0
   -0.1052   -0.9298   -0.3008 C   0  0  1  0  0  0  0  0  0  0  0  0
   -0.0809    0.5227    0.2519 C   0  0  0  0  0  0  0  0  0  0  0  0
    1.4545    0.4306    0.2568 C   0  0  0  0  0  0  0  0  0  0  0  0
    1.2938   -1.1019    0.3724 C   0  0  1  0  0  0  0  0  0  0  0  0
    2.2557   -1.9049   -0.3953 N   0  0  0  0  0  0  0  0  0  0  0  0
    3.6113   -1.7362   -0.3449 C   0  0  0  0  0  0  0  0  0  0  0  0
    4.4032   -2.5101   -0.8631 O   0  0  0  0  0  0  0  0  0  0  0  0
   -2.7156   -0.4734   -0.2676 H   0  0  0  0  0  0  0  0  0  0  0  0
   -3.2511   -1.9877    0.4053 H   0  0  0  0  0  0  0  0  0  0  0  0
   -0.0438   -0.9400   -1.4011 H   0  0  0  0  0  0  0  0  0  0  0  0
   -0.5181    0.6332    1.2514 H   0  0  0  0  0  0  0  0  0  0  0  0
   -0.4998    1.2893   -0.4052 H   0  0  0  0  0  0  0  0  0  0  0  0
    1.9164    0.7785   -0.6747 H   0  0  0  0  0  0  0  0  0  0  0  0
    1.9511    0.9154    1.1017 H   0  0  0  0  0  0  0  0  0  0  0  0
    1.2366   -1.4519    1.4117 H   0  0  0  0  0  0  0  0  0  0  0  0
    1.9771   -2.7844   -0.8212 H   0  0  0  0  0  0  0  0  0  0  0  0
    3.9265   -0.8358    0.2062 H   0  0  0  0  0  0  0  0  0  0  0  0
  1  2  1  0  0  0  0
  1 11  1  0  0  0  0
  1 12  1  0  0  0  0
  2  3  2  0  0  0  0
  4  2  1  0  0  0  0
  4  5  1  0  0  0  0
  4  7  1  0  0  0  0
  4 13  1  6  0  0  0
  5  6  1  0  0  0  0
  5 14  1  0  0  0  0
  5 15  1  0  0  0  0
  6  7  1  0  0  0  0
  6 16  1  0  0  0  0
  6 17  1  0  0  0  0
  7  8  1  0  0  0  0
  7 18  1  6  0  0  0
  8  9  1  0  0  0  0
  8 19  1  0  0  0  0
  9 10  2  0  0  0  0
  9 20  1  0  0  0  0
M  END
$$$$
