
 OpenBabel03202621322D

 23 23  0  0  1  0  0  0  0  0999 V2000
    1.2588    0.9659    0.0000 C   0  0  0  0  0  0  0  0  0  0  0  0
    1.0000    0.0000    0.0000 C   0  0  0  0  0  0  0  0  0  0  0  0
    1.9968   -0.0802    0.0000 C   0  0  0  0  0  0  0  0  0  0  0  0
    0.5000   -0.8660    0.0000 C   0  0  0  0  0  0  0  0  0  0  0  0
    0.0000    0.0000    0.0000 C   0  0  2  0  0  0  0  0  0  0  0  0
   -0.5000    0.8660    0.0000 N   0  0  0  0  0  0  0  0  0  0  0  0
   -1.0000    0.0000    0.0000 C   0  0  0  0  0  0  0  0  0  0  0  0
   -2.3111   -0.9513    0.0000 O   0  0  0  0  0  0  0  0  0  0  0  0
   -3.6110   -1.0459   -0.0000 C   0  0  0  0  0  0  0  0  0  0  0  0
   -4.3324   -0.0626    0.0000 O   0  0  0  0  0  0  0  0  0  0  0  0
    2.3018    1.6734    0.0000 H   0  0  0  0  0  0  0  0  0  0  0  0
    0.7698    2.0164   -0.0000 H   0  0  0  0  0  0  0  0  0  0  0  0
    1.5357    1.9994    0.0000 H   0  0  0  0  0  0  0  0  0  0  0  0
    2.3925   -1.1693   -0.0000 H   0  0  0  0  0  0  0  0  0  0  0  0
    3.0409    0.5601   -0.0000 H   0  0  0  0  0  0  0  0  0  0  0  0
    3.0634   -0.1660    0.0000 H   0  0  0  0  0  0  0  0  0  0  0  0
    0.9544   -1.9076    0.0000 H   0  0  0  0  0  0  0  0  0  0  0  0
    0.1281   -1.9464    0.0000 H   0  0  0  0  0  0  0  0  0  0  0  0
   -0.5371    1.9437    0.0000 H   0  0  0  0  0  0  0  0  0  0  0  0
   -2.1212    0.5590    0.0000 H   0  0  0  0  0  0  0  0  0  0  0  0
   -1.7926    1.5684   -0.0000 H   0  0  0  0  0  0  0  0  0  0  0  0
   -1.2002   -1.1298   -0.0000 H   0  0  0  0  0  0  0  0  0  0  0  0
   -3.8679   -2.1202    0.0000 H   0  0  0  0  0  0  0  0  0  0  0  0
  1  2  1  0  0  0  0
  1 11  1  0  0  0  0
  1 12  1  0  0  0  0
  1 13  1  0  0  0  0
  2  5  1  0  0  0  0
  2  3  1  0  0  0  0
  2  4  1  0  0  0  0
  3 14  1  0  0  0  0
  3 15  1  0  0  0  0
  3 16  1  0  0  0  0
  4  5  1  0  0  0  0
  4 17  1  0  0  0  0
  4 18  1  0  0  0  0
  5  6  1  6  0  0  0
  5  7  1  0  0  0  0
  6 19  1  0  0  0  0
  6 20  1  0  0  0  0
  7  8  1  0  0  0  0
  7 21  1  0  0  0  0
  7 22  1  0  0  0  0
  8  9  1  0  0  0  0
  9 10  2  0  0  0  0
  9 23  1  0  0  0  0
M  END
$$$$
