
 OpenBabel03202621302D

 36 35  0  0  0  0  0  0  0  0999 V2000
    7.7942   -2.5000    0.0000 C   0  0  0  0  0  0  0  0  0  0  0  0
    7.7942   -1.5000    0.0000 S   0  0  0  0  0  0  0  0  0  0  0  0
    7.5385    0.0329    0.6248 C   0  0  0  0  0  0  0  0  0  0  0  0
    8.5902    1.3100    0.4234 S   0  0  0  0  0  0  0  0  0  0  0  0
    6.2833    0.2382    1.1311 N   0  0  0  0  0  0  0  0  0  0  0  0
    5.2059    0.0936    0.1598 C   0  0  0  0  0  0  0  0  0  0  0  0
    4.7166   -1.3492    0.1678 C   0  0  0  0  0  0  0  0  0  0  0  0
    3.3125   -1.4501    0.6639 C   0  0  0  0  0  0  0  0  0  0  0  0
    2.5357   -2.0771   -0.3478 N   0  0  0  0  0  0  0  0  0  0  0  0
    2.1006   -1.2643   -1.3530 C   0  0  0  0  0  0  0  0  0  0  0  0
    2.7981   -0.5287   -2.0428 O   0  0  0  0  0  0  0  0  0  0  0  0
    0.7521   -1.2418   -1.3922 O   0  0  0  0  0  0  0  0  0  0  0  0
    0.0000   -1.0000    0.0000 C   0  0  0  0  0  0  0  0  0  0  0  0
   -1.0000   -1.0000    0.0000 C   0  0  0  0  0  0  0  0  0  0  0  0
   -0.5000   -1.8660    0.0000 C   0  0  0  0  0  0  0  0  0  0  0  0
    0.0000    0.0000    0.0000 C   0  0  0  0  0  0  0  0  0  0  0  0
    7.1166   -2.6762   -0.8565 H   0  0  0  0  0  0  0  0  0  0  0  0
    8.8301   -2.6722   -0.3490 H   0  0  0  0  0  0  0  0  0  0  0  0
    7.7942   -3.5700    0.0000 H   0  0  0  0  0  0  0  0  0  0  0  0
    6.1238   -0.3734    1.9198 H   0  0  0  0  0  0  0  0  0  0  0  0
    4.4408    0.8345    0.4017 H   0  0  0  0  0  0  0  0  0  0  0  0
    5.5819    0.3416   -0.8440 H   0  0  0  0  0  0  0  0  0  0  0  0
    5.2908   -2.0000    0.8353 H   0  0  0  0  0  0  0  0  0  0  0  0
    4.8298   -1.7730   -0.8394 H   0  0  0  0  0  0  0  0  0  0  0  0
    2.8817   -0.4675    0.9003 H   0  0  0  0  0  0  0  0  0  0  0  0
    3.2485   -2.0581    1.5644 H   0  0  0  0  0  0  0  0  0  0  0  0
    1.8758   -2.7599   -0.0174 H   0  0  0  0  0  0  0  0  0  0  0  0
   -1.4284   -0.5218    1.0729 H   0  0  0  0  0  0  0  0  0  0  0  0
   -1.4600   -0.5394   -1.0651 H   0  0  0  0  0  0  0  0  0  0  0  0
   -2.0700   -1.0000    0.0000 H   0  0  0  0  0  0  0  0  0  0  0  0
   -0.1413   -2.2892    1.0733 H   0  0  0  0  0  0  0  0  0  0  0  0
    0.0882   -2.6945   -0.5723 H   0  0  0  0  0  0  0  0  0  0  0  0
   -1.0350   -2.7926    0.0000 H   0  0  0  0  0  0  0  0  0  0  0  0
    0.8517    0.1879    0.7122 H   0  0  0  0  0  0  0  0  0  0  0  0
    0.2660    0.4507   -1.0239 H   0  0  0  0  0  0  0  0  0  0  0  0
    0.0000    1.0700    0.0000 H   0  0  0  0  0  0  0  0  0  0  0  0
  1  2  1  0  0  0  0
  1 17  1  0  0  0  0
  1 18  1  0  0  0  0
  1 19  1  0  0  0  0
  2  3  1  0  0  0  0
  3  4  2  0  0  0  0
  3  5  1  0  0  0  0
  5  6  1  0  0  0  0
  5 20  1  0  0  0  0
  6  7  1  0  0  0  0
  6 21  1  0  0  0  0
  6 22  1  0  0  0  0
  7  8  1  0  0  0  0
  7 23  1  0  0  0  0
  7 24  1  0  0  0  0
  8  9  1  0  0  0  0
  8 25  1  0  0  0  0
  8 26  1  0  0  0  0
  9 10  1  0  0  0  0
  9 27  1  0  0  0  0
 10 11  2  0  0  0  0
 10 12  1  0  0  0  0
 12 13  1  0  0  0  0
 13 14  1  0  0  0  0
 13 15  1  0  0  0  0
 13 16  1  0  0  0  0
 14 28  1  0  0  0  0
 14 29  1  0  0  0  0
 14 30  1  0  0  0  0
 15 31  1  0  0  0  0
 15 32  1  0  0  0  0
 15 33  1  0  0  0  0
 16 34  1  0  0  0  0
 16 35  1  0  0  0  0
 16 36  1  0  0  0  0
M  END
$$$$
