
 OpenBabel03202621332D

 23 23  0  0  0  0  0  0  0  0999 V2000
   -2.5981    2.5000    0.0000 C   0  0  0  0  0  0  0  0  0  0  0  0
   -2.5981    1.5000    0.0000 S   0  0  0  0  0  0  0  0  0  0  0  0
   -1.9809    1.3091   -1.6727 C   0  0  0  0  0  0  0  0  0  0  0  0
   -2.9398    1.1867   -3.0330 S   0  0  0  0  0  0  0  0  0  0  0  0
   -0.6272    1.5609   -1.7657 N   0  0  0  0  0  0  0  0  0  0  0  0
    0.3223    1.1079   -0.8188 C   0  0  0  0  0  0  0  0  0  0  0  0
    1.5822    1.7432   -0.8328 C   0  0  0  0  0  0  0  0  0  0  0  0
    2.6123    1.2638   -0.0418 C   0  0  0  0  0  0  0  0  0  0  0  0
    3.8066    1.8590   -0.0693 F   0  0  0  0  0  0  0  0  0  0  0  0
    2.4294    0.1303    0.7163 C   0  0  0  0  0  0  0  0  0  0  0  0
    1.1595   -0.4581    0.7286 C   0  0  0  0  0  0  0  0  0  0  0  0
    0.0000    0.0000    0.0000 C   0  0  0  0  0  0  0  0  0  0  0  0
   -0.8660   -0.5000    0.0000 C   0  0  0  0  0  0  0  0  0  0  0  0
   -2.0328    2.6736    0.9366 H   0  0  0  0  0  0  0  0  0  0  0  0
   -3.6705    2.6738    0.2173 H   0  0  0  0  0  0  0  0  0  0  0  0
   -2.5981    3.5700    0.0000 H   0  0  0  0  0  0  0  0  0  0  0  0
   -0.2849    1.9720   -2.6269 H   0  0  0  0  0  0  0  0  0  0  0  0
    1.7591    2.6293   -1.4306 H   0  0  0  0  0  0  0  0  0  0  0  0
    3.2548   -0.3062    1.2675 H   0  0  0  0  0  0  0  0  0  0  0  0
    1.0740   -1.3861    1.3091 H   0  0  0  0  0  0  0  0  0  0  0  0
   -1.0075   -0.7046    1.0905 H   0  0  0  0  0  0  0  0  0  0  0  0
   -0.5667   -1.4097   -0.5753 H   0  0  0  0  0  0  0  0  0  0  0  0
   -1.7926   -1.0350    0.0000 H   0  0  0  0  0  0  0  0  0  0  0  0
  1  2  1  0  0  0  0
  1 14  1  0  0  0  0
  1 15  1  0  0  0  0
  1 16  1  0  0  0  0
  2  3  1  0  0  0  0
  3  4  2  0  0  0  0
  3  5  1  0  0  0  0
  5  6  1  0  0  0  0
  5 17  1  0  0  0  0
  6 12  2  0  0  0  0
  6  7  1  0  0  0  0
  7  8  2  0  0  0  0
  7 18  1  0  0  0  0
  8  9  1  0  0  0  0
  8 10  1  0  0  0  0
 10 11  2  0  0  0  0
 10 19  1  0  0  0  0
 11 12  1  0  0  0  0
 11 20  1  0  0  0  0
 12 13  1  0  0  0  0
 13 21  1  0  0  0  0
 13 22  1  0  0  0  0
 13 23  1  0  0  0  0
M  END
$$$$
