
 OpenBabel03202621302D

 19 19  0  0  0  0  0  0  0  0999 V2000
   -5.7968    1.5803   -0.0000 O   0  0  0  0  0  0  0  0  0  0  0  0
   -6.4473    0.5486   -0.0000 C   0  0  0  0  0  0  0  0  0  0  0  0
   -5.8927   -1.1083   -0.0000 S   0  0  0  0  0  0  0  0  0  0  0  0
   -4.1350   -1.0422   -0.0000 C   0  0  0  0  0  0  0  0  0  0  0  0
   -3.4071    0.1249   -0.0000 C   0  0  0  0  0  0  0  0  0  0  0  0
   -2.0144    0.1253    0.0000 C   0  0  0  0  0  0  0  0  0  0  0  0
   -1.0000   -1.0000    0.0000 C   0  0  0  0  0  0  0  0  0  0  0  0
    0.0000   -1.0000    0.0000 S   0  0  0  0  0  0  0  0  0  0  0  0
    0.0000   -2.0000    0.0000 O   0  0  0  0  0  0  0  0  0  0  0  0
    1.0000   -1.0000    0.0000 O   0  0  0  0  0  0  0  0  0  0  0  0
    0.0000    0.0000    0.0000 O   0  0  0  0  0  0  0  0  0  0  0  0
   -2.0340   -2.1864   -0.0000 C   0  0  0  0  0  0  0  0  0  0  0  0
   -3.4348   -2.2246   -0.0000 C   0  0  0  0  0  0  0  0  0  0  0  0
   -7.5471    0.6202    0.0000 H   0  0  0  0  0  0  0  0  0  0  0  0
   -3.8185    1.1128   -0.0000 H   0  0  0  0  0  0  0  0  0  0  0  0
   -1.6362    1.1696    0.0000 H   0  0  0  0  0  0  0  0  0  0  0  0
    0.8647    0.4514   -0.0000 H   0  0  0  0  0  0  0  0  0  0  0  0
   -1.6129   -3.2155    0.0000 H   0  0  0  0  0  0  0  0  0  0  0  0
   -3.9159   -3.1974   -0.0000 H   0  0  0  0  0  0  0  0  0  0  0  0
  1  2  2  0  0  0  0
  2  3  1  0  0  0  0
  2 14  1  0  0  0  0
  3  4  1  0  0  0  0
  4 13  2  0  0  0  0
  4  5  1  0  0  0  0
  5  6  2  0  0  0  0
  5 15  1  0  0  0  0
  6  7  1  0  0  0  0
  6 16  1  0  0  0  0
  7  8  1  0  0  0  0
  7 12  2  0  0  0  0
  8  9  2  0  0  0  0
  8 10  2  0  0  0  0
  8 11  1  0  0  0  0
 11 17  1  0  0  0  0
 12 13  1  0  0  0  0
 12 18  1  0  0  0  0
 13 19  1  0  0  0  0
M  END
$$$$
