
 OpenBabel03202621282D

 17 19  0  0  1  0  0  0  0  0999 V2000
    1.4483   -1.6730    0.0000 O   0  0  0  0  0  0  0  0  0  0  0  0
    1.7071   -0.7071    0.0000 C   0  0  0  0  0  0  0  0  0  0  0  0
    2.6730   -0.4483    0.0000 O   0  0  0  0  0  0  0  0  0  0  0  0
    2.9319    0.5176    0.0000 C   0  0  0  0  0  0  0  0  0  0  0  0
    2.2247    1.2247    0.0000 C   0  0  0  0  0  0  0  0  0  0  0  0
    2.4836    2.1907    0.0000 C   0  0  0  0  0  0  0  0  0  0  0  0
    3.4495    2.4495    0.0000 O   0  0  0  0  0  0  0  0  0  0  0  0
    4.1566    1.7424    0.0000 C   0  0  0  0  0  0  0  0  0  0  0  0
    3.8978    0.7765    0.0000 C   0  0  0  0  0  0  0  0  0  0  0  0
    4.6049    0.0694    0.0000 O   0  5  0  0  0  0  0  0  0  0  0  0
    1.0000   -0.0000    0.0000 C   0  0  2  0  0  0  0  0  0  0  0  0
    0.0000    0.0000    0.0000 C   0  0  0  0  0  0  0  0  0  0  0  0
    0.0000    1.0000    0.0000 C   0  0  2  0  0  0  0  0  0  0  0  0
   -0.3090    1.9511    0.0000 C   0  0  0  0  0  0  0  0  0  0  0  0
    0.5000    2.5388    0.0000 N   0  0  0  0  0  0  0  0  0  0  0  0
    1.3090    1.9511    0.0000 C   0  0  0  0  0  0  0  0  0  0  0  0
    1.0000    1.0000    0.0000 C   0  0  2  0  0  0  0  0  0  0  0  0
  1  2  2  0  0  0  0
  2  3  1  0  0  0  0
  3  4  1  0  0  0  0
  4  9  1  0  0  0  0
  4  5  2  0  0  0  0
  5  6  1  0  0  0  0
  6  7  1  0  0  0  0
  7  8  1  0  0  0  0
  8  9  2  0  0  0  0
  9 10  1  0  0  0  0
 11  2  1  6  0  0  0
 11 12  1  0  0  0  0
 11 17  1  0  0  0  0
 13 12  1  6  0  0  0
 13 14  1  0  0  0  0
 13 17  1  0  0  0  0
 14 15  1  0  0  0  0
 15 16  1  0  0  0  0
 17 16  1  6  0  0  0
M  CHG  1  10  -1
M  END
$$$$
