
 OpenBabel03202621302D

 25 24  0  0  1  0  0  0  0  0999 V2000
    5.1962    0.0000    0.0000 C   0  0  0  0  0  0  0  0  0  0  0  0
    5.1962    1.0000    0.0000 C   0  0  0  0  0  0  0  0  0  0  0  0
    4.3616    1.4160   -1.1235 C   0  0  0  0  0  0  0  0  0  0  0  0
    3.4641    1.0000    0.0000 C   0  0  1  0  0  0  0  0  0  0  0  0
    2.0187    1.5153   -0.5249 N   0  0  0  0  0  0  0  0  0  0  0  0
    3.4641    0.0000    0.0000 C   0  0  0  0  0  0  0  0  0  0  0  0
    2.6349   -1.0574   -0.9887 C   0  0  0  0  0  0  0  0  0  0  0  0
    1.2328   -0.7283   -1.2635 O   0  0  0  0  0  0  0  0  0  0  0  0
    0.2168   -1.2002   -0.5018 C   0  0  0  0  0  0  0  0  0  0  0  0
   -0.8995   -0.6866   -0.4590 O   0  0  0  0  0  0  0  0  0  0  0  0
    5.8680   -0.2308   -0.8863 H   0  0  0  0  0  0  0  0  0  0  0  0
    5.8740   -0.1788    0.8856 H   0  0  0  0  0  0  0  0  0  0  0  0
    5.1962   -1.0700    0.0000 H   0  0  0  0  0  0  0  0  0  0  0  0
    6.1811    1.4571   -0.2737 H   0  0  0  0  0  0  0  0  0  0  0  0
    5.1414    1.6007    0.9569 H   0  0  0  0  0  0  0  0  0  0  0  0
    4.5043    2.4822   -1.3776 H   0  0  0  0  0  0  0  0  0  0  0  0
    4.3501    0.8334   -2.0582 H   0  0  0  0  0  0  0  0  0  0  0  0
    3.4641    2.0700    0.0000 H   0  0  0  0  0  0  0  0  0  0  0  0
    1.8289    2.4759   -0.2190 H   0  0  0  0  0  0  0  0  0  0  0  0
    1.2550    0.9805   -0.1107 H   0  0  0  0  0  0  0  0  0  0  0  0
    2.6092   -0.0450    0.7466 H   0  0  0  0  0  0  0  0  0  0  0  0
    3.7192   -0.7325    0.8547 H   0  0  0  0  0  0  0  0  0  0  0  0
    3.1395   -1.1768   -1.9479 H   0  0  0  0  0  0  0  0  0  0  0  0
    2.6406   -2.0385   -0.4916 H   0  0  0  0  0  0  0  0  0  0  0  0
    0.4882   -2.0967    0.0635 H   0  0  0  0  0  0  0  0  0  0  0  0
  1  2  1  0  0  0  0
  1 11  1  0  0  0  0
  1 12  1  0  0  0  0
  1 13  1  0  0  0  0
  2  3  1  0  0  0  0
  2 14  1  0  0  0  0
  2 15  1  0  0  0  0
  3  4  1  0  0  0  0
  3 16  1  0  0  0  0
  3 17  1  0  0  0  0
  4  5  1  0  0  0  0
  4  6  1  0  0  0  0
  4 18  1  1  0  0  0
  5 19  1  0  0  0  0
  5 20  1  0  0  0  0
  6  7  1  0  0  0  0
  6 21  1  0  0  0  0
  6 22  1  0  0  0  0
  7  8  1  0  0  0  0
  7 23  1  0  0  0  0
  7 24  1  0  0  0  0
  8  9  1  0  0  0  0
  9 10  2  0  0  0  0
  9 25  1  0  0  0  0
M  END
$$$$
