
 OpenBabel03202621322D

 25 25  0  0  1  0  0  0  0  0999 V2000
   -2.5981   -1.5000    0.0000 C   0  0  0  0  0  0  0  0  0  0  0  0
   -1.7321   -2.0000    0.0000 C   0  0  2  0  0  0  0  0  0  0  0  0
   -1.5634   -3.4675   -0.5149 C   0  0  0  0  0  0  0  0  0  0  0  0
    0.1767   -4.0259   -0.3207 S   0  0  0  0  0  0  0  0  0  0  0  0
   -0.0306   -5.7603   -0.2458 C   0  0  0  0  0  0  0  0  0  0  0  0
   -1.1282   -6.3040   -0.2478 O   0  0  0  0  0  0  0  0  0  0  0  0
   -0.7203   -1.1742   -0.7470 O   0  0  0  0  0  0  0  0  0  0  0  0
   -0.4597    0.1261   -0.3547 C   0  0  0  0  0  0  0  0  0  0  0  0
   -1.4477    1.1076   -0.2169 C   0  0  0  0  0  0  0  0  0  0  0  0
   -1.1053    2.4338    0.0549 C   0  0  0  0  0  0  0  0  0  0  0  0
    0.2313    2.7570    0.1554 C   0  0  0  0  0  0  0  0  0  0  0  0
    1.2230    1.8544    0.0199 N   0  0  0  0  0  0  0  0  0  0  0  0
    0.8602    0.5583   -0.2412 C   0  0  0  0  0  0  0  0  0  0  0  0
    1.9655   -0.3443   -0.3967 C   0  0  0  0  0  0  0  0  0  0  0  0
    2.8708   -1.0602   -0.5146 N   0  0  0  0  0  0  0  0  0  0  0  0
   -2.8870   -1.5946   -1.0771 H   0  0  0  0  0  0  0  0  0  0  0  0
   -3.2257   -2.1999    0.6026 H   0  0  0  0  0  0  0  0  0  0  0  0
   -3.5247   -0.9650    0.0000 H   0  0  0  0  0  0  0  0  0  0  0  0
   -1.2753   -2.0361    1.0046 H   0  0  0  0  0  0  0  0  0  0  0  0
   -1.8175   -3.5507   -1.5774 H   0  0  0  0  0  0  0  0  0  0  0  0
   -2.2214   -4.1286    0.0599 H   0  0  0  0  0  0  0  0  0  0  0  0
    0.9049   -6.3393   -0.1805 H   0  0  0  0  0  0  0  0  0  0  0  0
   -2.5003    0.8969   -0.3607 H   0  0  0  0  0  0  0  0  0  0  0  0
   -1.8699    3.1978    0.1552 H   0  0  0  0  0  0  0  0  0  0  0  0
    0.5502    3.7814    0.3370 H   0  0  0  0  0  0  0  0  0  0  0  0
  1 16  1  0  0  0  0
  1 17  1  0  0  0  0
  1 18  1  0  0  0  0
  2  1  1  0  0  0  0
  2  3  1  0  0  0  0
  2  7  1  0  0  0  0
  2 19  1  6  0  0  0
  3  4  1  0  0  0  0
  3 20  1  0  0  0  0
  3 21  1  0  0  0  0
  4  5  1  0  0  0  0
  5  6  2  0  0  0  0
  5 22  1  0  0  0  0
  7  8  1  0  0  0  0
  8 13  2  0  0  0  0
  8  9  1  0  0  0  0
  9 10  2  0  0  0  0
  9 23  1  0  0  0  0
 10 11  1  0  0  0  0
 10 24  1  0  0  0  0
 11 12  2  0  0  0  0
 11 25  1  0  0  0  0
 12 13  1  0  0  0  0
 13 14  1  0  0  0  0
 14 15  3  0  0  0  0
M  END
$$$$
