
 OpenBabel03202621302D

 16 16  0  0  0  0  0  0  0  0999 V2000
    3.5768    0.6000    0.0000 C   0  0  0  0  0  0  0  0  0  0  0  0
    2.5823    0.7045    0.0000 C   0  0  0  0  0  0  0  0  0  0  0  0
    1.5878    0.8090    0.0000 C   0  0  0  0  0  0  0  0  0  0  0  0
    0.7961   -0.3481   -0.0000 C   0  0  0  0  0  0  0  0  0  0  0  0
    1.1309   -1.7063   -0.0000 C   0  0  0  0  0  0  0  0  0  0  0  0
    0.0229   -2.4500    0.0000 N   0  0  0  0  0  0  0  0  0  0  0  0
   -0.9822   -1.5244   -0.0000 N   0  0  0  0  0  0  0  0  0  0  0  0
   -2.3447   -1.7243    0.0000 C   0  0  0  0  0  0  0  0  0  0  0  0
   -2.8065   -2.8303    0.0000 O   0  0  0  0  0  0  0  0  0  0  0  0
   -0.5548   -0.2633   -0.0000 C   0  0  0  0  0  0  0  0  0  0  0  0
    4.6382    0.4892   -0.0000 H   0  0  0  0  0  0  0  0  0  0  0  0
    1.6575    1.9232   -0.0000 H   0  0  0  0  0  0  0  0  0  0  0  0
    0.6686    1.4187    0.0000 H   0  0  0  0  0  0  0  0  0  0  0  0
    2.1382   -2.1227    0.0000 H   0  0  0  0  0  0  0  0  0  0  0  0
   -2.9272   -0.7975   -0.0000 H   0  0  0  0  0  0  0  0  0  0  0  0
   -1.2047    0.6089   -0.0000 H   0  0  0  0  0  0  0  0  0  0  0  0
  1  2  3  0  0  0  0
  1 11  1  0  0  0  0
  2  3  1  0  0  0  0
  3  4  1  0  0  0  0
  3 12  1  0  0  0  0
  3 13  1  0  0  0  0
  4 10  2  0  0  0  0
  4  5  1  0  0  0  0
  5  6  2  0  0  0  0
  5 14  1  0  0  0  0
  6  7  1  0  0  0  0
  7  8  1  0  0  0  0
  7 10  1  0  0  0  0
  8  9  2  0  0  0  0
  8 15  1  0  0  0  0
 10 16  1  0  0  0  0
M  END
$$$$
