
 OpenBabel03202621372D

 22 22  0  0  1  0  0  0  0  0999 V2000
    1.8660    0.5000    0.0000 C   0  0  0  0  0  0  0  0  0  0  0  0
    1.0000    0.0000    0.0000 C   0  0  2  0  0  0  0  0  0  0  0  0
    0.7431   -1.1503   -0.9724 C   0  0  0  0  0  0  0  0  0  0  0  0
    0.2468    0.2387   -1.2283 C   0  0  1  0  0  0  0  0  0  0  0  0
   -0.8650    0.9479   -0.6849 C   0  0  0  0  0  0  0  0  0  0  0  0
   -1.7321    0.0000    0.0000 N   0  0  0  0  0  0  0  0  0  0  0  0
   -2.5981    0.5000    0.0000 C   0  0  0  0  0  0  0  0  0  0  0  0
   -1.4770   -0.7056    1.2044 C   0  0  0  0  0  0  0  0  0  0  0  0
   -2.0919   -0.6099    2.2660 O   0  0  0  0  0  0  0  0  0  0  0  0
    2.5041   -0.2284    0.5595 H   0  0  0  0  0  0  0  0  0  0  0  0
    1.6099    1.3604    0.6693 H   0  0  0  0  0  0  0  0  0  0  0  0
    2.7926    1.0350    0.0000 H   0  0  0  0  0  0  0  0  0  0  0  0
    0.6349   -0.1539    1.0051 H   0  0  0  0  0  0  0  0  0  0  0  0
    1.5561   -1.5070   -1.6012 H   0  0  0  0  0  0  0  0  0  0  0  0
    0.0007   -1.9178   -0.8014 H   0  0  0  0  0  0  0  0  0  0  0  0
    0.6880    0.7739   -2.0655 H   0  0  0  0  0  0  0  0  0  0  0  0
   -0.5824    1.7531    0.0210 H   0  0  0  0  0  0  0  0  0  0  0  0
   -1.3488    1.4760   -1.5286 H   0  0  0  0  0  0  0  0  0  0  0  0
   -2.8794    0.3542   -1.0821 H   0  0  0  0  0  0  0  0  0  0  0  0
   -3.3091   -0.2685    0.4123 H   0  0  0  0  0  0  0  0  0  0  0  0
   -3.5247    1.0350    0.0000 H   0  0  0  0  0  0  0  0  0  0  0  0
   -0.6919   -1.4661    1.1153 H   0  0  0  0  0  0  0  0  0  0  0  0
  1 10  1  0  0  0  0
  1 11  1  0  0  0  0
  1 12  1  0  0  0  0
  2  1  1  0  0  0  0
  2  3  1  0  0  0  0
  2  4  1  0  0  0  0
  2 13  1  1  0  0  0
  3  4  1  0  0  0  0
  3 14  1  0  0  0  0
  3 15  1  0  0  0  0
  4  5  1  0  0  0  0
  4 16  1  6  0  0  0
  5  6  1  0  0  0  0
  5 17  1  0  0  0  0
  5 18  1  0  0  0  0
  6  7  1  0  0  0  0
  6  8  1  0  0  0  0
  7 19  1  0  0  0  0
  7 20  1  0  0  0  0
  7 21  1  0  0  0  0
  8  9  2  0  0  0  0
  8 22  1  0  0  0  0
M  END
$$$$
