
 OpenBabel03202621302D

 16 16  0  0  0  0  0  0  0  0999 V2000
    2.2953   -1.9260    0.0000 C   0  0  0  0  0  0  0  0  0  0  0  0
    2.5032   -0.9479    0.0000 S   0  0  0  0  0  0  0  0  0  0  0  0
    1.1376    0.1686   -0.0000 C   0  0  0  0  0  0  0  0  0  0  0  0
    1.3763    1.3679   -0.0000 O   0  0  0  0  0  0  0  0  0  0  0  0
   -0.2437   -0.3383   -0.0000 C   0  0  0  0  0  0  0  0  0  0  0  0
   -0.8665   -1.5907   -0.0000 C   0  0  0  0  0  0  0  0  0  0  0  0
   -2.2660   -1.4204   -0.0000 C   0  0  0  0  0  0  0  0  0  0  0  0
   -2.4963   -0.0757    0.0000 C   0  0  0  0  0  0  0  0  0  0  0  0
   -1.2854    0.5688   -0.0000 N   0  0  0  0  0  0  0  0  0  0  0  0
    1.2625   -2.1234    0.0000 H   0  0  0  0  0  0  0  0  0  0  0  0
    3.2616   -2.4395    0.0000 H   0  0  0  0  0  0  0  0  0  0  0  0
    2.0728   -2.9726    0.0000 H   0  0  0  0  0  0  0  0  0  0  0  0
   -0.4438   -2.5826   -0.0000 H   0  0  0  0  0  0  0  0  0  0  0  0
   -2.9944   -2.2204    0.0000 H   0  0  0  0  0  0  0  0  0  0  0  0
   -3.4214    0.4837    0.0000 H   0  0  0  0  0  0  0  0  0  0  0  0
   -1.1471    1.5711   -0.0000 H   0  0  0  0  0  0  0  0  0  0  0  0
  1  2  1  0  0  0  0
  1 10  1  0  0  0  0
  1 11  1  0  0  0  0
  1 12  1  0  0  0  0
  2  3  1  0  0  0  0
  3  4  2  0  0  0  0
  3  5  1  0  0  0  0
  5  9  1  0  0  0  0
  5  6  2  0  0  0  0
  6  7  1  0  0  0  0
  6 13  1  0  0  0  0
  7  8  2  0  0  0  0
  7 14  1  0  0  0  0
  8  9  1  0  0  0  0
  8 15  1  0  0  0  0
  9 16  1  0  0  0  0
M  END
$$$$
