
 OpenBabel03202621312D

 31 32  0  0  0  0  0  0  0  0999 V2000
   -0.0933   -1.7796    0.0000 C   0  0  0  0  0  0  0  0  0  0  0  0
   -0.5000   -0.8660    0.0000 C   0  0  0  0  0  0  0  0  0  0  0  0
   -1.5836   -0.3241    0.6782 C   0  0  0  0  0  0  0  0  0  0  0  0
   -1.7355    0.9532    0.2071 N   0  0  0  0  0  0  0  0  0  0  0  0
   -2.9479    1.7536    0.1933 C   0  0  0  0  0  0  0  0  0  0  0  0
   -4.1125    0.8466   -0.1682 C   0  0  0  0  0  0  0  0  0  0  0  0
   -5.3579    1.5236   -0.3047 O   0  0  0  0  0  0  0  0  0  0  0  0
   -6.4303    0.6586   -0.3315 C   0  0  0  0  0  0  0  0  0  0  0  0
   -6.3368   -0.7338   -0.4938 C   0  0  0  0  0  0  0  0  0  0  0  0
   -7.4699   -1.5386   -0.4110 C   0  0  0  0  0  0  0  0  0  0  0  0
   -8.7149   -0.9567   -0.1983 C   0  0  0  0  0  0  0  0  0  0  0  0
   -8.8280    0.4351   -0.0854 C   0  0  0  0  0  0  0  0  0  0  0  0
  -10.1415    1.0889    0.1232 C   0  0  0  0  0  0  0  0  0  0  0  0
  -10.3368    2.2833    0.2248 O   0  0  0  0  0  0  0  0  0  0  0  0
  -11.1522    0.2039    0.1953 O   0  0  0  0  0  0  0  0  0  0  0  0
   -7.6839    1.2417   -0.1550 C   0  0  0  0  0  0  0  0  0  0  0  0
   -0.6991    1.2986   -0.5551 N   0  0  0  0  0  0  0  0  0  0  0  0
    0.0641    0.2266   -0.6740 N   0  0  0  0  0  0  0  0  0  0  0  0
   -0.9937   -2.3852   -0.2723 H   0  0  0  0  0  0  0  0  0  0  0  0
    0.5305   -1.7552   -0.9288 H   0  0  0  0  0  0  0  0  0  0  0  0
    0.3419   -2.7571    0.0000 H   0  0  0  0  0  0  0  0  0  0  0  0
   -2.2949   -0.7774    1.3542 H   0  0  0  0  0  0  0  0  0  0  0  0
   -2.8350    2.5580   -0.5425 H   0  0  0  0  0  0  0  0  0  0  0  0
   -3.0646    2.2107    1.1804 H   0  0  0  0  0  0  0  0  0  0  0  0
   -3.8815    0.3374   -1.1137 H   0  0  0  0  0  0  0  0  0  0  0  0
   -4.2043    0.1100    0.6391 H   0  0  0  0  0  0  0  0  0  0  0  0
   -5.3913   -1.2342   -0.6743 H   0  0  0  0  0  0  0  0  0  0  0  0
   -7.3766   -2.6176   -0.5060 H   0  0  0  0  0  0  0  0  0  0  0  0
   -9.5903   -1.5973   -0.1259 H   0  0  0  0  0  0  0  0  0  0  0  0
  -11.9431    0.7658    0.3291 H   0  0  0  0  0  0  0  0  0  0  0  0
   -7.7662    2.3219   -0.0554 H   0  0  0  0  0  0  0  0  0  0  0  0
  1  2  1  0  0  0  0
  1 19  1  0  0  0  0
  1 20  1  0  0  0  0
  1 21  1  0  0  0  0
  2 18  1  0  0  0  0
  2  3  2  0  0  0  0
  3  4  1  0  0  0  0
  3 22  1  0  0  0  0
  4  5  1  0  0  0  0
  4 17  1  0  0  0  0
  5  6  1  0  0  0  0
  5 23  1  0  0  0  0
  5 24  1  0  0  0  0
  6  7  1  0  0  0  0
  6 25  1  0  0  0  0
  6 26  1  0  0  0  0
  7  8  1  0  0  0  0
  8 16  2  0  0  0  0
  8  9  1  0  0  0  0
  9 10  2  0  0  0  0
  9 27  1  0  0  0  0
 10 11  1  0  0  0  0
 10 28  1  0  0  0  0
 11 12  2  0  0  0  0
 11 29  1  0  0  0  0
 12 13  1  0  0  0  0
 12 16  1  0  0  0  0
 13 14  2  0  0  0  0
 13 15  1  0  0  0  0
 15 30  1  0  0  0  0
 16 31  1  0  0  0  0
 17 18  2  0  0  0  0
M  END
$$$$
