
 OpenBabel03202621282D

 19 20  0  0  0  0  0  0  0  0999 V2000
   -1.5878   -0.8090    0.0000 C   0  0  0  0  0  0  0  0  0  0  0  0
   -1.0000   -0.0000    0.0000 C   0  0  0  0  0  0  0  0  0  0  0  0
   -1.3090    0.9511    0.0000 C   0  0  0  0  0  0  0  0  0  0  0  0
   -0.5000    1.5388    0.0000 N   0  0  0  0  0  0  0  0  0  0  0  0
   -0.5000    2.5388    0.0000 C   0  0  0  0  0  0  0  0  0  0  0  0
    0.3660    3.0388    0.0000 O   0  0  0  0  0  0  0  0  0  0  0  0
   -1.3660    3.0388    0.0000 N   0  0  0  0  0  0  0  0  0  0  0  0
   -2.2321    2.5388    0.0000 C   0  0  0  0  0  0  0  0  0  0  0  0
   -2.2321    1.5388    0.0000 C   0  0  0  0  0  0  0  0  0  0  0  0
   -3.0981    1.0388    0.0000 C   0  0  0  0  0  0  0  0  0  0  0  0
   -3.9641    1.5388    0.0000 C   0  0  0  0  0  0  0  0  0  0  0  0
   -3.9641    2.5388    0.0000 C   0  0  0  0  0  0  0  0  0  0  0  0
   -4.8301    3.0388    0.0000 C   0  0  0  0  0  0  0  0  0  0  0  0
   -5.8301    3.0388    0.0000 F   0  0  0  0  0  0  0  0  0  0  0  0
   -5.3301    2.1728    0.0000 F   0  0  0  0  0  0  0  0  0  0  0  0
   -4.8301    4.0388    0.0000 F   0  0  0  0  0  0  0  0  0  0  0  0
   -3.0981    3.0388    0.0000 C   0  0  0  0  0  0  0  0  0  0  0  0
    0.3090    0.9511    0.0000 N   0  0  0  0  0  0  0  0  0  0  0  0
    0.0000    0.0000    0.0000 N   0  0  0  0  0  0  0  0  0  0  0  0
  1  2  1  0  0  0  0
  2 19  1  0  0  0  0
  2  3  2  0  0  0  0
  3  4  1  0  0  0  0
  4  5  1  0  0  0  0
  4 18  1  0  0  0  0
  5  6  2  0  0  0  0
  5  7  1  0  0  0  0
  7  8  1  0  0  0  0
  8 17  2  0  0  0  0
  8  9  1  0  0  0  0
  9 10  2  0  0  0  0
 10 11  1  0  0  0  0
 11 12  2  0  0  0  0
 12 13  1  0  0  0  0
 12 17  1  0  0  0  0
 13 14  1  0  0  0  0
 13 15  1  0  0  0  0
 13 16  1  0  0  0  0
 18 19  2  0  0  0  0
M  END
$$$$
