
 OpenBabel03202621302D

 27 28  0  0  0  0  0  0  0  0999 V2000
   -0.2788    1.7601    0.0000 C   0  0  0  0  0  0  0  0  0  0  0  0
    0.3090    0.9511    0.0000 C   0  0  0  0  0  0  0  0  0  0  0  0
    1.4906    0.7602    0.7040 C   0  0  0  0  0  0  0  0  0  0  0  0
    2.0188   -0.4063    0.2506 N   0  0  0  0  0  0  0  0  0  0  0  0
    3.3577   -0.9138    0.4624 C   0  0  0  0  0  0  0  0  0  0  0  0
    4.3228   -0.2521   -0.5123 C   0  0  0  0  0  0  0  0  0  0  0  0
    5.7134   -0.5871   -0.3003 N   0  0  0  0  0  0  0  0  0  0  0  0
    6.6292    0.4024   -0.2064 N   0  0  0  0  0  0  0  0  0  0  0  0
    7.7613   -0.3130   -0.0863 C   0  0  0  0  0  0  0  0  0  0  0  0
    9.0676    0.3297   -0.0240 N   0  3  0  0  0  0  0  0  0  0  0  0
   10.0589   -0.4141    0.0404 O   0  0  0  0  0  0  0  0  0  0  0  0
    9.1080    1.5699   -0.0464 O   0  5  0  0  0  0  0  0  0  0  0  0
    7.6048   -1.6774   -0.0791 N   0  0  0  0  0  0  0  0  0  0  0  0
    6.3153   -1.8228   -0.2469 C   0  0  0  0  0  0  0  0  0  0  0  0
    5.6591   -2.9905   -0.3504 N   0  0  0  0  0  0  0  0  0  0  0  0
    1.2018   -0.9879   -0.6333 N   0  0  0  0  0  0  0  0  0  0  0  0
    0.1592   -0.1904   -0.7863 N   0  0  0  0  0  0  0  0  0  0  0  0
   -0.2275    2.0297   -1.0817 H   0  0  0  0  0  0  0  0  0  0  0  0
   -1.2568    1.2780    0.2355 H   0  0  0  0  0  0  0  0  0  0  0  0
   -0.9077    2.6257    0.0000 H   0  0  0  0  0  0  0  0  0  0  0  0
    2.0144    1.3944    1.4115 H   0  0  0  0  0  0  0  0  0  0  0  0
    3.3150   -1.9984    0.3336 H   0  0  0  0  0  0  0  0  0  0  0  0
    3.6289   -0.7127    1.5060 H   0  0  0  0  0  0  0  0  0  0  0  0
    4.0863   -0.5129   -1.5495 H   0  0  0  0  0  0  0  0  0  0  0  0
    4.2401    0.8397   -0.4316 H   0  0  0  0  0  0  0  0  0  0  0  0
    4.9043   -3.0892   -1.0234 H   0  0  0  0  0  0  0  0  0  0  0  0
    6.2680   -3.8083   -0.3802 H   0  0  0  0  0  0  0  0  0  0  0  0
  1  2  1  0  0  0  0
  1 18  1  0  0  0  0
  1 19  1  0  0  0  0
  1 20  1  0  0  0  0
  2 17  1  0  0  0  0
  2  3  2  0  0  0  0
  3  4  1  0  0  0  0
  3 21  1  0  0  0  0
  4  5  1  0  0  0  0
  4 16  1  0  0  0  0
  5  6  1  0  0  0  0
  5 22  1  0  0  0  0
  5 23  1  0  0  0  0
  6  7  1  0  0  0  0
  6 24  1  0  0  0  0
  6 25  1  0  0  0  0
  7 14  1  0  0  0  0
  7  8  1  0  0  0  0
  8  9  2  0  0  0  0
  9 10  1  0  0  0  0
  9 13  1  0  0  0  0
 10 11  2  0  0  0  0
 10 12  1  0  0  0  0
 13 14  2  0  0  0  0
 14 15  1  0  0  0  0
 15 26  1  0  0  0  0
 15 27  1  0  0  0  0
 16 17  2  0  0  0  0
M  CHG  2  10   1  12  -1
M  END
$$$$
