
 OpenBabel03202621282D

 18 20  0  0  0  0  0  0  0  0999 V2000
    0.8090   -1.5878    0.0000 C   0  0  0  0  0  0  0  0  0  0  0  0
   -0.0000   -1.0000    0.0000 C   0  0  0  0  0  0  0  0  0  0  0  0
   -0.9511   -1.3090    0.0000 C   0  0  0  0  0  0  0  0  0  0  0  0
   -1.5388   -0.5000    0.0000 N   0  0  0  0  0  0  0  0  0  0  0  0
   -2.5388   -0.5000    0.0000 C   0  0  0  0  0  0  0  0  0  0  0  0
   -3.1266   -1.3090    0.0000 N   0  0  0  0  0  0  0  0  0  0  0  0
   -4.0777   -1.0000    0.0000 C   0  0  0  0  0  0  0  0  0  0  0  0
   -4.9437   -1.5000    0.0000 C   0  0  0  0  0  0  0  0  0  0  0  0
   -5.8097   -1.0000    0.0000 C   0  0  0  0  0  0  0  0  0  0  0  0
   -6.6758   -1.5000    0.0000 C   0  0  0  0  0  0  0  0  0  0  0  0
   -5.8097    0.0000    0.0000 C   0  0  0  0  0  0  0  0  0  0  0  0
   -6.6758    0.5000    0.0000 C   0  0  0  0  0  0  0  0  0  0  0  0
   -4.9437    0.5000    0.0000 C   0  0  0  0  0  0  0  0  0  0  0  0
   -4.0777    0.0000    0.0000 C   0  0  0  0  0  0  0  0  0  0  0  0
   -3.1266    0.3090    0.0000 N   0  0  0  0  0  0  0  0  0  0  0  0
   -2.8176    1.2601    0.0000 C   0  0  0  0  0  0  0  0  0  0  0  0
   -0.9511    0.3090    0.0000 N   0  0  0  0  0  0  0  0  0  0  0  0
   -0.0000   -0.0000    0.0000 N   0  0  0  0  0  0  0  0  0  0  0  0
  1  2  1  0  0  0  0
  2 18  1  0  0  0  0
  2  3  2  0  0  0  0
  3  4  1  0  0  0  0
  4  5  1  0  0  0  0
  4 17  1  0  0  0  0
  5 15  1  0  0  0  0
  5  6  2  0  0  0  0
  6  7  1  0  0  0  0
  7 14  2  0  0  0  0
  7  8  1  0  0  0  0
  8  9  2  0  0  0  0
  9 10  1  0  0  0  0
  9 11  1  0  0  0  0
 11 12  1  0  0  0  0
 11 13  2  0  0  0  0
 13 14  1  0  0  0  0
 14 15  1  0  0  0  0
 15 16  1  0  0  0  0
 17 18  2  0  0  0  0
M  END
$$$$
