
 OpenBabel03202621282D

 20 22  0  0  1  0  0  0  0  0999 V2000
   -5.3249   -0.5806    0.0000 O   0  5  0  0  0  0  0  0  0  0  0  0
   -4.6557    0.1625    0.0000 C   0  0  0  0  0  0  0  0  0  0  0  0
   -4.9648    1.1136    0.0000 C   0  0  0  0  0  0  0  0  0  0  0  0
   -4.2956    1.8567    0.0000 O   0  0  0  0  0  0  0  0  0  0  0  0
   -3.3175    1.6488    0.0000 C   0  0  0  0  0  0  0  0  0  0  0  0
   -3.0085    0.6977    0.0000 C   0  0  0  0  0  0  0  0  0  0  0  0
   -3.6776   -0.0454    0.0000 C   0  0  0  0  0  0  0  0  0  0  0  0
   -3.3686   -0.9965    0.0000 O   0  0  0  0  0  0  0  0  0  0  0  0
   -2.3904   -1.2044    0.0000 C   0  0  0  0  0  0  0  0  0  0  0  0
   -1.7213   -0.4612    0.0000 C   0  0  2  0  0  0  0  0  0  0  0  0
   -2.0303    0.4898    0.0000 O   0  0  0  0  0  0  0  0  0  0  0  0
   -0.7431   -0.6691    0.0000 C   0  0  0  0  0  0  0  0  0  0  0  0
   -0.3364   -1.5827    0.0000 C   0  0  0  0  0  0  0  0  0  0  0  0
    0.6581   -1.4781    0.0000 S   0  0  0  0  0  0  0  0  0  0  0  0
    0.8660   -0.5000    0.0000 C   0  0  0  0  0  0  0  0  0  0  0  0
    1.7321   -0.0000    0.0000 C   0  0  0  0  0  0  0  0  0  0  0  0
    1.7321    1.0000    0.0000 C   0  0  0  0  0  0  0  0  0  0  0  0
    0.8660    1.5000    0.0000 C   0  0  0  0  0  0  0  0  0  0  0  0
    0.0000    1.0000    0.0000 C   0  0  0  0  0  0  0  0  0  0  0  0
   -0.0000   -0.0000    0.0000 C   0  0  0  0  0  0  0  0  0  0  0  0
  1  2  1  0  0  0  0
  2  7  1  0  0  0  0
  2  3  2  0  0  0  0
  3  4  1  0  0  0  0
  4  5  1  0  0  0  0
  5  6  1  0  0  0  0
  6  7  2  0  0  0  0
  7  8  1  0  0  0  0
  8  9  1  0  0  0  0
  9 10  1  0  0  0  0
 10 11  1  6  0  0  0
 10 12  1  0  0  0  0
 12 20  1  0  0  0  0
 12 13  2  0  0  0  0
 13 14  1  0  0  0  0
 14 15  1  0  0  0  0
 15 20  2  0  0  0  0
 15 16  1  0  0  0  0
 16 17  2  0  0  0  0
 17 18  1  0  0  0  0
 18 19  2  0  0  0  0
 19 20  1  0  0  0  0
M  CHG  1   1  -1
M  END
$$$$
