
 OpenBabel03202621352D

 25 26  0  0  0  0  0  0  0  0999 V2000
    4.1945    1.8838    0.0000 C   0  0  0  0  0  0  0  0  0  0  0  0
    3.5254    2.6270    0.0000 S   0  0  0  0  0  0  0  0  0  0  0  0
    1.9031    2.4992   -0.5423 C   0  0  0  0  0  0  0  0  0  0  0  0
    1.0533    3.8472   -1.0525 S   0  0  0  0  0  0  0  0  0  0  0  0
    1.3835    1.2453   -0.4303 N   0  0  0  0  0  0  0  0  0  0  0  0
   -0.0351    0.9308   -0.4755 C   0  0  0  0  0  0  0  0  0  0  0  0
   -0.3483   -0.4681   -0.2520 N   0  0  0  0  0  0  0  0  0  0  0  0
    0.6440   -1.3723   -0.1058 N   0  0  0  0  0  0  0  0  0  0  0  0
    0.0752   -2.5494    0.1030 N   0  0  0  0  0  0  0  0  0  0  0  0
   -1.2832   -2.3727    0.1021 C   0  0  0  0  0  0  0  0  0  0  0  0
   -2.3240   -3.2912    0.2834 C   0  0  0  0  0  0  0  0  0  0  0  0
   -3.6424   -2.8226    0.2412 C   0  0  0  0  0  0  0  0  0  0  0  0
   -3.9182   -1.4689    0.0250 C   0  0  0  0  0  0  0  0  0  0  0  0
   -2.8913   -0.5381   -0.1615 C   0  0  0  0  0  0  0  0  0  0  0  0
   -1.5849   -1.0329   -0.1179 C   0  0  0  0  0  0  0  0  0  0  0  0
    3.9417    1.4127    0.9707 H   0  0  0  0  0  0  0  0  0  0  0  0
    5.1143    2.4815    0.1447 H   0  0  0  0  0  0  0  0  0  0  0  0
    4.9104    1.0886    0.0000 H   0  0  0  0  0  0  0  0  0  0  0  0
    1.9772    0.5013   -0.0800 H   0  0  0  0  0  0  0  0  0  0  0  0
   -0.5384    1.5024    0.3128 H   0  0  0  0  0  0  0  0  0  0  0  0
   -0.4441    1.2091   -1.4520 H   0  0  0  0  0  0  0  0  0  0  0  0
   -2.1041   -4.3400    0.4533 H   0  0  0  0  0  0  0  0  0  0  0  0
   -4.4632   -3.5234    0.3810 H   0  0  0  0  0  0  0  0  0  0  0  0
   -4.9539   -1.1335    0.0004 H   0  0  0  0  0  0  0  0  0  0  0  0
   -3.1106    0.5128   -0.3287 H   0  0  0  0  0  0  0  0  0  0  0  0
  1  2  1  0  0  0  0
  1 16  1  0  0  0  0
  1 17  1  0  0  0  0
  1 18  1  0  0  0  0
  2  3  1  0  0  0  0
  3  4  2  0  0  0  0
  3  5  1  0  0  0  0
  5  6  1  0  0  0  0
  5 19  1  0  0  0  0
  6  7  1  0  0  0  0
  6 20  1  0  0  0  0
  6 21  1  0  0  0  0
  7 15  1  0  0  0  0
  7  8  1  0  0  0  0
  8  9  2  0  0  0  0
  9 10  1  0  0  0  0
 10 15  2  0  0  0  0
 10 11  1  0  0  0  0
 11 12  2  0  0  0  0
 11 22  1  0  0  0  0
 12 13  1  0  0  0  0
 12 23  1  0  0  0  0
 13 14  2  0  0  0  0
 13 24  1  0  0  0  0
 14 15  1  0  0  0  0
 14 25  1  0  0  0  0
M  END
$$$$
