
 OpenBabel03202621332D

 21 21  0  0  1  0  0  0  0  0999 V2000
    0.2788   -1.7601    0.0000 C   0  0  0  0  0  0  0  0  0  0  0  0
   -0.3090   -0.9511    0.0000 C   0  0  2  0  0  0  0  0  0  0  0  0
   -1.9794   -1.0585   -0.0000 C   0  0  0  0  0  0  0  0  0  0  0  0
   -2.2452    0.3895    0.0000 C   0  0  0  0  0  0  0  0  0  0  0  0
   -3.3460    0.9252   -0.0000 O   0  0  0  0  0  0  0  0  0  0  0  0
   -1.0263    0.9944    0.0000 N   0  0  0  0  0  0  0  0  0  0  0  0
   -1.0531    2.3564    0.0000 C   0  0  0  0  0  0  0  0  0  0  0  0
   -0.1066    3.1524   -0.0000 O   0  0  0  0  0  0  0  0  0  0  0  0
    0.0000    0.0000    0.0000 C   0  0  2  0  0  0  0  0  0  0  0  0
    0.9511    0.3090    0.0000 C   0  0  0  0  0  0  0  0  0  0  0  0
   -0.1760   -2.9060   -0.0000 H   0  0  0  0  0  0  0  0  0  0  0  0
    1.4159   -1.7654    0.0000 H   0  0  0  0  0  0  0  0  0  0  0  0
    0.9077   -2.6257    0.0000 H   0  0  0  0  0  0  0  0  0  0  0  0
   -0.9537   -1.7531    0.0000 H   0  0  0  0  0  0  0  0  0  0  0  0
   -2.3937   -2.1413    0.0000 H   0  0  0  0  0  0  0  0  0  0  0  0
   -3.0763   -1.0145    0.0000 H   0  0  0  0  0  0  0  0  0  0  0  0
   -2.0687    2.7640    0.0000 H   0  0  0  0  0  0  0  0  0  0  0  0
    0.8848   -0.3554    0.0000 H   0  0  0  0  0  0  0  0  0  0  0  0
    2.2158   -0.3654   -0.0000 H   0  0  0  0  0  0  0  0  0  0  0  0
    1.0168    1.4222   -0.0000 H   0  0  0  0  0  0  0  0  0  0  0  0
    1.9687    0.6396    0.0000 H   0  0  0  0  0  0  0  0  0  0  0  0
  1 11  1  0  0  0  0
  1 12  1  0  0  0  0
  1 13  1  0  0  0  0
  2  1  1  0  0  0  0
  2  3  1  0  0  0  0
  2  9  1  0  0  0  0
  2 14  1  1  0  0  0
  3  4  1  0  0  0  0
  3 15  1  0  0  0  0
  3 16  1  0  0  0  0
  4  5  2  0  0  0  0
  4  6  1  0  0  0  0
  6  7  1  0  0  0  0
  6  9  1  0  0  0  0
  7  8  2  0  0  0  0
  7 17  1  0  0  0  0
  9 10  1  0  0  0  0
  9 18  1  1  0  0  0
 10 19  1  0  0  0  0
 10 20  1  0  0  0  0
 10 21  1  0  0  0  0
M  END
$$$$
