
 OpenBabel03202621292D

 26 26  0  0  1  0  0  0  0  0999 V2000
   -0.8660   -2.5000    0.0000 C   0  0  0  0  0  0  0  0  0  0  0  0
    0.0000   -3.0000    0.0000 C   0  0  2  0  0  0  0  0  0  0  0  0
    0.0421   -4.6456    0.9758 S   0  0  0  0  0  0  0  0  0  0  0  0
   -1.2186   -5.5959    0.1663 C   0  0  0  0  0  0  0  0  0  0  0  0
   -1.1050   -6.7971   -0.0250 O   0  0  0  0  0  0  0  0  0  0  0  0
    1.2893   -2.0899    0.2958 C   0  0  1  0  0  0  0  0  0  0  0  0
    2.5843   -2.8748   -0.0177 C   0  0  0  0  0  0  0  0  0  0  0  0
    1.4417   -0.8515   -0.4895 O   0  0  0  0  0  0  0  0  0  0  0  0
    0.3934    0.0539   -0.4638 C   0  0  0  0  0  0  0  0  0  0  0  0
   -0.7198   -0.2860   -1.1179 N   0  0  0  0  0  0  0  0  0  0  0  0
   -1.8049    0.4802   -0.9156 C   0  0  0  0  0  0  0  0  0  0  0  0
   -1.7623    1.6645   -0.2814 C   0  0  0  0  0  0  0  0  0  0  0  0
   -0.5090    2.0442    0.1707 C   0  0  0  0  0  0  0  0  0  0  0  0
    0.5767    1.2378    0.1411 N   0  0  0  0  0  0  0  0  0  0  0  0
   -0.9708   -2.2665    1.0870 H   0  0  0  0  0  0  0  0  0  0  0  0
   -1.5956   -3.2469   -0.3538 H   0  0  0  0  0  0  0  0  0  0  0  0
   -1.7926   -1.9650    0.0000 H   0  0  0  0  0  0  0  0  0  0  0  0
    0.2521   -3.3619   -1.0116 H   0  0  0  0  0  0  0  0  0  0  0  0
   -2.1548   -5.0845   -0.1445 H   0  0  0  0  0  0  0  0  0  0  0  0
    1.3170   -1.8212    1.3618 H   0  0  0  0  0  0  0  0  0  0  0  0
    2.6354   -3.8529    0.4702 H   0  0  0  0  0  0  0  0  0  0  0  0
    3.4656   -2.3089    0.3003 H   0  0  0  0  0  0  0  0  0  0  0  0
    2.6903   -3.0306   -1.0996 H   0  0  0  0  0  0  0  0  0  0  0  0
   -2.7415    0.0408   -1.2440 H   0  0  0  0  0  0  0  0  0  0  0  0
   -2.6510    2.2772   -0.1215 H   0  0  0  0  0  0  0  0  0  0  0  0
   -0.3540    3.0358    0.5963 H   0  0  0  0  0  0  0  0  0  0  0  0
  1 15  1  0  0  0  0
  1 16  1  0  0  0  0
  1 17  1  0  0  0  0
  2  1  1  0  0  0  0
  2  3  1  0  0  0  0
  2  6  1  0  0  0  0
  2 18  1  6  0  0  0
  3  4  1  0  0  0  0
  4  5  2  0  0  0  0
  4 19  1  0  0  0  0
  6  7  1  0  0  0  0
  6  8  1  0  0  0  0
  6 20  1  1  0  0  0
  7 21  1  0  0  0  0
  7 22  1  0  0  0  0
  7 23  1  0  0  0  0
  8  9  1  0  0  0  0
  9 14  2  0  0  0  0
  9 10  1  0  0  0  0
 10 11  2  0  0  0  0
 11 12  1  0  0  0  0
 11 24  1  0  0  0  0
 12 13  2  0  0  0  0
 12 25  1  0  0  0  0
 13 14  1  0  0  0  0
 13 26  1  0  0  0  0
M  END
$$$$
