
 OpenBabel03202621392D

 17 16  0  0  0  0  0  0  0  0999 V2000
    3.4641    0.0000    0.0000 C   0  0  0  0  0  0  0  0  0  0  0  0
    3.4641    1.0000    0.0000 N   0  0  0  0  0  0  0  0  0  0  0  0
    2.3851    1.8325    0.0995 N   0  0  0  0  0  0  0  0  0  0  0  0
    1.1497    1.4729   -0.1223 C   0  0  0  0  0  0  0  0  0  0  0  0
    0.0684    2.5003    0.1137 C   0  0  0  0  0  0  0  0  0  0  0  0
    0.7543    0.2244   -0.5565 N   0  0  0  0  0  0  0  0  0  0  0  0
   -0.5126   -0.3300   -0.5780 C   0  0  0  0  0  0  0  0  0  0  0  0
   -1.5549    0.1618   -0.1771 O   0  0  0  0  0  0  0  0  0  0  0  0
    3.6970   -0.1853    1.0708 H   0  0  0  0  0  0  0  0  0  0  0  0
    4.3707   -0.1837   -0.6137 H   0  0  0  0  0  0  0  0  0  0  0  0
    3.4641   -1.0700    0.0000 H   0  0  0  0  0  0  0  0  0  0  0  0
    4.2935    1.5471    0.2467 H   0  0  0  0  0  0  0  0  0  0  0  0
    0.4975    3.5062    0.0927 H   0  0  0  0  0  0  0  0  0  0  0  0
   -0.6975    2.4473   -0.6645 H   0  0  0  0  0  0  0  0  0  0  0  0
   -0.3859    2.3300    1.0932 H   0  0  0  0  0  0  0  0  0  0  0  0
    1.4934   -0.3869   -0.8535 H   0  0  0  0  0  0  0  0  0  0  0  0
   -0.4796   -1.3546   -0.9865 H   0  0  0  0  0  0  0  0  0  0  0  0
  1  2  1  0  0  0  0
  1  9  1  0  0  0  0
  1 10  1  0  0  0  0
  1 11  1  0  0  0  0
  2  3  1  0  0  0  0
  2 12  1  0  0  0  0
  3  4  2  3  0  0  0
  4  5  1  0  0  0  0
  4  6  1  0  0  0  0
  5 13  1  0  0  0  0
  5 14  1  0  0  0  0
  5 15  1  0  0  0  0
  6  7  1  0  0  0  0
  6 16  1  0  0  0  0
  7  8  2  0  0  0  0
  7 17  1  0  0  0  0
M  END
$$$$
