
 OpenBabel03202621352D

 26 26  0  0  0  0  0  0  0  0999 V2000
    0.8660   -2.5000    0.0000 C   0  0  0  0  0  0  0  0  0  0  0  0
    0.8660   -1.5000    0.0000 C   0  0  0  0  0  0  0  0  0  0  0  0
   -0.6337   -1.1968   -0.4730 C   0  0  0  0  0  0  0  0  0  0  0  0
   -1.7388   -1.8310    0.1618 C   0  0  0  0  0  0  0  0  0  0  0  0
   -3.0563   -1.5218   -0.1830 C   0  0  0  0  0  0  0  0  0  0  0  0
   -4.4887   -2.4272    0.6566 Br  0  0  0  0  0  0  0  0  0  0  0  0
   -3.3286   -0.5417   -1.1337 C   0  0  0  0  0  0  0  0  0  0  0  0
   -2.2695    0.0643   -1.8009 C   0  0  0  0  0  0  0  0  0  0  0  0
   -0.9485   -0.2846   -1.4939 C   0  0  0  0  0  0  0  0  0  0  0  0
    0.0589    0.4368   -2.1452 N   0  0  0  0  0  0  0  0  0  0  0  0
    0.7926    1.3749   -1.4351 C   0  0  0  0  0  0  0  0  0  0  0  0
    1.9160    1.7181   -1.7912 O   0  0  0  0  0  0  0  0  0  0  0  0
    0.0000    2.0000    0.0000 S   0  0  0  0  0  0  0  0  0  0  0  0
    0.0000    3.0000    0.0000 C   0  0  0  0  0  0  0  0  0  0  0  0
    0.6256   -2.6971    1.0794 H   0  0  0  0  0  0  0  0  0  0  0  0
    1.9704   -2.6770   -0.0583 H   0  0  0  0  0  0  0  0  0  0  0  0
    0.8660   -3.5700    0.0000 H   0  0  0  0  0  0  0  0  0  0  0  0
    1.5078   -1.0041   -0.7417 H   0  0  0  0  0  0  0  0  0  0  0  0
    1.0228   -0.8821    0.9009 H   0  0  0  0  0  0  0  0  0  0  0  0
   -1.5756   -2.5845    0.9321 H   0  0  0  0  0  0  0  0  0  0  0  0
   -4.3517   -0.2517   -1.3622 H   0  0  0  0  0  0  0  0  0  0  0  0
   -2.4742    0.8451   -2.5222 H   0  0  0  0  0  0  0  0  0  0  0  0
    0.7068   -0.0992   -2.7119 H   0  0  0  0  0  0  0  0  0  0  0  0
    1.0813    3.2312   -0.0480 H   0  0  0  0  0  0  0  0  0  0  0  0
   -0.5589    3.2204   -0.9307 H   0  0  0  0  0  0  0  0  0  0  0  0
    0.0000    4.0700    0.0000 H   0  0  0  0  0  0  0  0  0  0  0  0
  1  2  1  0  0  0  0
  1 15  1  0  0  0  0
  1 16  1  0  0  0  0
  1 17  1  0  0  0  0
  2  3  1  0  0  0  0
  2 18  1  0  0  0  0
  2 19  1  0  0  0  0
  3  9  2  0  0  0  0
  3  4  1  0  0  0  0
  4  5  2  0  0  0  0
  4 20  1  0  0  0  0
  5  6  1  0  0  0  0
  5  7  1  0  0  0  0
  7  8  2  0  0  0  0
  7 21  1  0  0  0  0
  8  9  1  0  0  0  0
  8 22  1  0  0  0  0
  9 10  1  0  0  0  0
 10 11  1  0  0  0  0
 10 23  1  0  0  0  0
 11 12  2  0  0  0  0
 11 13  1  0  0  0  0
 13 14  1  0  0  0  0
 14 24  1  0  0  0  0
 14 25  1  0  0  0  0
 14 26  1  0  0  0  0
M  END
$$$$
