
 OpenBabel03202621282D

 18 18  0  0  0  0  0  0  0  0999 V2000
   -5.9269   -1.7766    0.0000 C   0  0  0  0  0  0  0  0  0  0  0  0
   -5.7189   -2.7547    0.0000 C   0  0  0  0  0  0  0  0  0  0  0  0
   -4.7679   -3.0637    0.0000 O   0  0  0  0  0  0  0  0  0  0  0  0
   -4.0247   -2.3946    0.0000 C   0  0  0  0  0  0  0  0  0  0  0  0
   -3.0737   -2.7036    0.0000 O   0  0  0  0  0  0  0  0  0  0  0  0
   -4.2327   -1.4164    0.0000 C   0  0  0  0  0  0  0  0  0  0  0  0
   -3.4895   -0.7473    0.0000 C   0  0  0  0  0  0  0  0  0  0  0  0
   -2.5385   -1.0563    0.0000 O   0  0  0  0  0  0  0  0  0  0  0  0
   -3.6974    0.2308    0.0000 C   0  0  0  0  0  0  0  0  0  0  0  0
   -2.9543    0.9000    0.0000 O   0  0  0  0  0  0  0  0  0  0  0  0
   -2.0032    0.5909    0.0000 C   0  0  0  0  0  0  0  0  0  0  0  0
   -1.2601    1.2601    0.0000 C   0  0  0  0  0  0  0  0  0  0  0  0
   -0.3090    0.9511    0.0000 N   0  0  0  0  0  0  0  0  0  0  0  0
    0.5000    1.5388    0.0000 C   0  0  0  0  0  0  0  0  0  0  0  0
    1.3090    0.9511    0.0000 C   0  0  0  0  0  0  0  0  0  0  0  0
    2.2601    1.2601    0.0000 C   0  0  0  0  0  0  0  0  0  0  0  0
    1.0000    0.0000    0.0000 N   0  0  0  0  0  0  0  0  0  0  0  0
    0.0000   -0.0000    0.0000 N   0  0  0  0  0  0  0  0  0  0  0  0
  1  2  1  0  0  0  0
  2  3  1  0  0  0  0
  3  4  1  0  0  0  0
  4  5  2  0  0  0  0
  4  6  1  0  0  0  0
  6  7  1  0  0  0  0
  7  8  2  0  0  0  0
  7  9  1  0  0  0  0
  9 10  1  0  0  0  0
 10 11  1  0  0  0  0
 11 12  1  0  0  0  0
 12 13  1  0  0  0  0
 13 18  1  0  0  0  0
 13 14  1  0  0  0  0
 14 15  2  0  0  0  0
 15 16  1  0  0  0  0
 15 17  1  0  0  0  0
 17 18  2  0  0  0  0
M  END
$$$$
