
 OpenBabel03202621362D

 23 23  0  0  0  0  0  0  0  0999 V2000
   -0.8660   -3.5000    0.0000 C   0  0  0  0  0  0  0  0  0  0  0  0
    0.0000   -3.0000    0.0000 S   0  0  0  0  0  0  0  0  0  0  0  0
    1.1560   -1.9059    0.0000 C   0  0  0  0  0  0  0  0  0  0  0  0
    2.3723   -1.9613   -0.0000 O   0  0  0  0  0  0  0  0  0  0  0  0
    0.1572   -1.1095    0.0000 N   0  0  0  0  0  0  0  0  0  0  0  0
   -0.3111    0.0740    0.0000 C   0  0  0  0  0  0  0  0  0  0  0  0
   -1.7321    0.0000    0.0000 C   0  0  0  0  0  0  0  0  0  0  0  0
   -2.5981   -0.5000    0.0000 C   0  0  0  0  0  0  0  0  0  0  0  0
   -1.8552    1.4706   -0.0000 C   0  0  0  0  0  0  0  0  0  0  0  0
   -0.8456    2.5420   -0.0000 C   0  0  0  0  0  0  0  0  0  0  0  0
    0.4985    2.2847   -0.0000 C   0  0  0  0  0  0  0  0  0  0  0  0
    0.7671    0.9990   -0.0000 C   0  0  0  0  0  0  0  0  0  0  0  0
    2.0531    0.5706   -0.0000 F   0  0  0  0  0  0  0  0  0  0  0  0
   -1.7492   -2.9243   -0.0000 H   0  0  0  0  0  0  0  0  0  0  0  0
   -0.5918   -4.5609   -0.0000 H   0  0  0  0  0  0  0  0  0  0  0  0
   -1.7926   -4.0350    0.0000 H   0  0  0  0  0  0  0  0  0  0  0  0
   -0.6646   -1.6263    0.0000 H   0  0  0  0  0  0  0  0  0  0  0  0
   -3.4755    0.1689   -0.0000 H   0  0  0  0  0  0  0  0  0  0  0  0
   -2.4482   -1.5332   -0.0000 H   0  0  0  0  0  0  0  0  0  0  0  0
   -3.5247   -1.0350    0.0000 H   0  0  0  0  0  0  0  0  0  0  0  0
   -2.8609    1.9229   -0.0000 H   0  0  0  0  0  0  0  0  0  0  0  0
   -1.1610    3.5801    0.0000 H   0  0  0  0  0  0  0  0  0  0  0  0
    1.3275    2.9750   -0.0000 H   0  0  0  0  0  0  0  0  0  0  0  0
  1  2  1  0  0  0  0
  1 14  1  0  0  0  0
  1 15  1  0  0  0  0
  1 16  1  0  0  0  0
  2  3  1  0  0  0  0
  3  4  2  0  0  0  0
  3  5  1  0  0  0  0
  5  6  1  0  0  0  0
  5 17  1  0  0  0  0
  6 12  2  0  0  0  0
  6  7  1  0  0  0  0
  7  8  1  0  0  0  0
  7  9  2  0  0  0  0
  8 18  1  0  0  0  0
  8 19  1  0  0  0  0
  8 20  1  0  0  0  0
  9 10  1  0  0  0  0
  9 21  1  0  0  0  0
 10 11  2  0  0  0  0
 10 22  1  0  0  0  0
 11 12  1  0  0  0  0
 11 23  1  0  0  0  0
 12 13  1  0  0  0  0
M  END
$$$$
