
 OpenBabel03202621312D

 32 32  0  0  1  0  0  0  0  0999 V2000
   -2.5981   -1.5000    0.0000 C   0  0  0  0  0  0  0  0  0  0  0  0
   -1.7321   -2.0000    0.0000 O   0  0  0  0  0  0  0  0  0  0  0  0
   -1.0477   -1.8708    1.1967 C   0  0  0  0  0  0  0  0  0  0  0  0
   -0.5856   -2.8037    1.8176 O   0  0  0  0  0  0  0  0  0  0  0  0
   -0.8368   -0.4579    1.3615 C   0  0  1  0  0  0  0  0  0  0  0  0
   -1.9894    0.2577    2.2104 C   0  0  0  0  0  0  0  0  0  0  0  0
   -2.8184    1.1249    1.2517 C   0  0  0  0  0  0  0  0  0  0  0  0
   -1.8995    1.4981    0.0866 C   0  0  0  0  0  0  0  0  0  0  0  0
    0.0000    1.0000    0.0000 C   0  0  2  0  0  0  0  0  0  0  0  0
    1.1246    1.2844    1.0607 N   0  0  0  0  0  0  0  0  0  0  0  0
    1.5149    2.5731    0.8531 C   0  0  0  0  0  0  0  0  0  0  0  0
    3.0216    3.2211    0.9129 S   0  0  0  0  0  0  0  0  0  0  0  0
    0.0000    3.0000    0.0000 S   0  0  0  0  0  0  0  0  0  0  0  0
    0.0000    4.0000    0.0000 C   0  0  0  0  0  0  0  0  0  0  0  0
    0.0000    0.0000    0.0000 C   0  0  0  0  0  0  0  0  0  0  0  0
   -2.6695   -1.2694   -1.0840 H   0  0  0  0  0  0  0  0  0  0  0  0
   -3.3006   -2.3436    0.1819 H   0  0  0  0  0  0  0  0  0  0  0  0
   -3.5247   -0.9650    0.0000 H   0  0  0  0  0  0  0  0  0  0  0  0
   -1.5372   -0.2140    0.6911 H   0  0  0  0  0  0  0  0  0  0  0  0
   -1.6267    0.8726    3.0211 H   0  0  0  0  0  0  0  0  0  0  0  0
   -2.6888   -0.4919    2.6184 H   0  0  0  0  0  0  0  0  0  0  0  0
   -3.7156    0.6557    0.8183 H   0  0  0  0  0  0  0  0  0  0  0  0
   -3.2709    1.9861    1.7552 H   0  0  0  0  0  0  0  0  0  0  0  0
   -2.1102    2.5704    0.2089 H   0  0  0  0  0  0  0  0  0  0  0  0
   -2.2939    1.3429   -0.9296 H   0  0  0  0  0  0  0  0  0  0  0  0
    0.0000    2.0700    0.0000 H   0  0  0  0  0  0  0  0  0  0  0  0
    1.9387    0.6708    1.1113 H   0  0  0  0  0  0  0  0  0  0  0  0
    0.5157    4.1843   -0.9669 H   0  0  0  0  0  0  0  0  0  0  0  0
   -1.0707    4.2092   -0.1806 H   0  0  0  0  0  0  0  0  0  0  0  0
    0.0000    5.0700    0.0000 H   0  0  0  0  0  0  0  0  0  0  0  0
   -0.4289   -0.4225   -0.9231 H   0  0  0  0  0  0  0  0  0  0  0  0
    0.9188   -0.6175    0.0008 H   0  0  0  0  0  0  0  0  0  0  0  0
  1  2  1  0  0  0  0
  1 16  1  0  0  0  0
  1 17  1  0  0  0  0
  1 18  1  0  0  0  0
  2  3  1  0  0  0  0
  3  4  2  0  0  0  0
  5  3  1  0  0  0  0
  5  6  1  0  0  0  0
  5 15  1  0  0  0  0
  5 19  1  6  0  0  0
  6  7  1  0  0  0  0
  6 20  1  0  0  0  0
  6 21  1  0  0  0  0
  7  8  1  0  0  0  0
  7 22  1  0  0  0  0
  7 23  1  0  0  0  0
  8  9  1  0  0  0  0
  8 24  1  0  0  0  0
  8 25  1  0  0  0  0
  9 10  1  0  0  0  0
  9 15  1  0  0  0  0
  9 26  1  1  0  0  0
 10 11  1  0  0  0  0
 10 27  1  0  0  0  0
 11 12  2  0  0  0  0
 11 13  1  0  0  0  0
 13 14  1  0  0  0  0
 14 28  1  0  0  0  0
 14 29  1  0  0  0  0
 14 30  1  0  0  0  0
 15 31  1  0  0  0  0
 15 32  1  0  0  0  0
M  END
$$$$
