
 OpenBabel03202621332D

 22 22  0  0  1  0  0  0  0  0999 V2000
    0.8090    3.5878    0.0000 C   0  0  0  0  0  0  0  0  0  0  0  0
   -0.0570    3.0878    0.0000 S   0  0  0  0  0  0  0  0  0  0  0  0
   -0.0203    1.4744   -0.6614 C   0  0  0  0  0  0  0  0  0  0  0  0
   -1.0178    1.0688   -1.2516 O   0  0  0  0  0  0  0  0  0  0  0  0
    1.2553    0.6629   -0.5473 C   0  0  0  0  0  0  0  0  0  0  0  0
    1.0618   -0.6497    0.2090 C   0  0  2  0  0  0  0  0  0  0  0  0
    2.2785   -1.5634    0.1134 C   0  0  0  0  0  0  0  0  0  0  0  0
    1.7104   -2.9646    0.2376 C   0  0  0  0  0  0  0  0  0  0  0  0
    0.2113   -2.7839    0.1143 C   0  0  0  0  0  0  0  0  0  0  0  0
    0.0100   -1.4454   -0.3435 O   0  0  0  0  0  0  0  0  0  0  0  0
    0.8534    3.8806   -1.0687 H   0  0  0  0  0  0  0  0  0  0  0  0
    0.4935    4.4764    0.5789 H   0  0  0  0  0  0  0  0  0  0  0  0
    1.7356    4.1228    0.0000 H   0  0  0  0  0  0  0  0  0  0  0  0
    2.0525    1.2383   -0.0656 H   0  0  0  0  0  0  0  0  0  0  0  0
    1.5788    0.4698   -1.5762 H   0  0  0  0  0  0  0  0  0  0  0  0
    0.8138   -0.4489    1.2595 H   0  0  0  0  0  0  0  0  0  0  0  0
    2.7612   -1.4680   -0.8678 H   0  0  0  0  0  0  0  0  0  0  0  0
    3.0348   -1.3420    0.8722 H   0  0  0  0  0  0  0  0  0  0  0  0
    1.9746   -3.4436    1.1854 H   0  0  0  0  0  0  0  0  0  0  0  0
    2.0908   -3.6076   -0.5639 H   0  0  0  0  0  0  0  0  0  0  0  0
   -0.2460   -3.4863   -0.5886 H   0  0  0  0  0  0  0  0  0  0  0  0
   -0.2800   -2.8972    1.0875 H   0  0  0  0  0  0  0  0  0  0  0  0
  1  2  1  0  0  0  0
  1 11  1  0  0  0  0
  1 12  1  0  0  0  0
  1 13  1  0  0  0  0
  2  3  1  0  0  0  0
  3  4  2  0  0  0  0
  3  5  1  0  0  0  0
  5 14  1  0  0  0  0
  5 15  1  0  0  0  0
  6  5  1  0  0  0  0
  6  7  1  0  0  0  0
  6 10  1  0  0  0  0
  6 16  1  1  0  0  0
  7  8  1  0  0  0  0
  7 17  1  0  0  0  0
  7 18  1  0  0  0  0
  8  9  1  0  0  0  0
  8 19  1  0  0  0  0
  8 20  1  0  0  0  0
  9 10  1  0  0  0  0
  9 21  1  0  0  0  0
  9 22  1  0  0  0  0
M  END
$$$$
