
 OpenBabel03202621332D

 24 23  0  0  0  0  0  0  0  0999 V2000
    4.3301   -1.5000    0.0000 C   0  0  0  0  0  0  0  0  0  0  0  0
    4.3301   -0.5000    0.0000 S   0  0  0  0  0  0  0  0  0  0  0  0
    3.8294    0.7376   -1.0321 C   0  0  0  0  0  0  0  0  0  0  0  0
    4.5280    1.2553   -1.8772 O   0  0  0  0  0  0  0  0  0  0  0  0
    2.6313    1.1981   -0.5983 N   0  0  0  0  0  0  0  0  0  0  0  0
    1.6603    0.4020   -1.1533 C   0  0  0  0  0  0  0  0  0  0  0  0
    1.3594    0.4085   -2.3500 O   0  0  0  0  0  0  0  0  0  0  0  0
    0.8660   -0.5000    0.0000 C   0  0  0  0  0  0  0  0  0  0  0  0
    0.3660   -1.3660    0.0000 C   0  0  0  0  0  0  0  0  0  0  0  0
    1.3660   -1.3660    0.0000 C   0  0  0  0  0  0  0  0  0  0  0  0
    0.0000    0.0000    0.0000 C   0  0  0  0  0  0  0  0  0  0  0  0
    4.8883   -1.6720    0.9393 H   0  0  0  0  0  0  0  0  0  0  0  0
    5.0155   -1.6820   -0.8506 H   0  0  0  0  0  0  0  0  0  0  0  0
    4.3301   -2.5700    0.0000 H   0  0  0  0  0  0  0  0  0  0  0  0
    2.6063    1.0851    0.4102 H   0  0  0  0  0  0  0  0  0  0  0  0
   -0.2819   -1.4999   -1.0592 H   0  0  0  0  0  0  0  0  0  0  0  0
   -0.2208   -1.5705    1.0810 H   0  0  0  0  0  0  0  0  0  0  0  0
   -0.1690   -2.2926    0.0000 H   0  0  0  0  0  0  0  0  0  0  0  0
    1.9947   -1.4914   -0.9995 H   0  0  0  0  0  0  0  0  0  0  0  0
    2.0597   -1.1917    0.9237 H   0  0  0  0  0  0  0  0  0  0  0  0
    1.9010   -2.2926    0.0000 H   0  0  0  0  0  0  0  0  0  0  0  0
    0.2433    1.1070   -0.1216 H   0  0  0  0  0  0  0  0  0  0  0  0
   -0.1487    0.2024    1.1445 H   0  0  0  0  0  0  0  0  0  0  0  0
   -0.9266    0.5350    0.0000 H   0  0  0  0  0  0  0  0  0  0  0  0
  1  2  1  0  0  0  0
  1 12  1  0  0  0  0
  1 13  1  0  0  0  0
  1 14  1  0  0  0  0
  2  3  1  0  0  0  0
  3  4  2  0  0  0  0
  3  5  1  0  0  0  0
  5  6  1  0  0  0  0
  5 15  1  0  0  0  0
  6  7  2  0  0  0  0
  6  8  1  0  0  0  0
  8  9  1  0  0  0  0
  8 10  1  0  0  0  0
  8 11  1  0  0  0  0
  9 16  1  0  0  0  0
  9 17  1  0  0  0  0
  9 18  1  0  0  0  0
 10 19  1  0  0  0  0
 10 20  1  0  0  0  0
 10 21  1  0  0  0  0
 11 22  1  0  0  0  0
 11 23  1  0  0  0  0
 11 24  1  0  0  0  0
M  END
$$$$
