
 OpenBabel03202621312D

 24 24  0  0  1  0  0  0  0  0999 V2000
   -1.7103   -1.9691    0.0000 C   0  0  0  0  0  0  0  0  0  0  0  0
   -1.1225   -2.7781    0.0000 S   0  0  0  0  0  0  0  0  0  0  0  0
    0.4063   -2.3271   -0.7688 C   0  0  0  0  0  0  0  0  0  0  0  0
    0.9003   -3.0910   -1.6004 O   0  0  0  0  0  0  0  0  0  0  0  0
    1.1689   -1.0588   -0.2246 C   0  0  2  0  0  0  0  0  0  0  0  0
    2.4371   -0.8902   -0.9681 N   0  0  0  0  0  0  0  0  0  0  0  0
    0.4803    0.2790   -0.2244 C   0  0  0  0  0  0  0  0  0  0  0  0
   -0.5704    0.7173   -0.9376 C   0  0  0  0  0  0  0  0  0  0  0  0
   -1.0337    2.0656   -0.4953 C   0  0  0  0  0  0  0  0  0  0  0  0
    0.1586    2.5871    0.2941 C   0  0  0  0  0  0  0  0  0  0  0  0
    0.9524    1.3524    0.7209 C   0  0  0  0  0  0  0  0  0  0  0  0
   -2.2602   -2.1483   -0.9460 H   0  0  0  0  0  0  0  0  0  0  0  0
   -2.3808   -2.2443    0.8361 H   0  0  0  0  0  0  0  0  0  0  0  0
   -2.3392   -1.1035    0.0000 H   0  0  0  0  0  0  0  0  0  0  0  0
    1.4261   -1.3228    0.8107 H   0  0  0  0  0  0  0  0  0  0  0  0
    2.7402   -1.8127   -1.2944 H   0  0  0  0  0  0  0  0  0  0  0  0
    3.1580   -0.5496   -0.3387 H   0  0  0  0  0  0  0  0  0  0  0  0
   -1.0907    0.1568   -1.7023 H   0  0  0  0  0  0  0  0  0  0  0  0
   -1.9202    1.9648    0.1409 H   0  0  0  0  0  0  0  0  0  0  0  0
   -1.2775    2.7188   -1.3376 H   0  0  0  0  0  0  0  0  0  0  0  0
    0.7767    3.2242   -0.3514 H   0  0  0  0  0  0  0  0  0  0  0  0
   -0.1468    3.1964    1.1508 H   0  0  0  0  0  0  0  0  0  0  0  0
    0.7339    1.0769    1.7578 H   0  0  0  0  0  0  0  0  0  0  0  0
    2.0261    1.5424    0.6232 H   0  0  0  0  0  0  0  0  0  0  0  0
  1  2  1  0  0  0  0
  1 12  1  0  0  0  0
  1 13  1  0  0  0  0
  1 14  1  0  0  0  0
  2  3  1  0  0  0  0
  3  4  2  0  0  0  0
  3  5  1  0  0  0  0
  5  6  1  0  0  0  0
  5  7  1  0  0  0  0
  5 15  1  6  0  0  0
  6 16  1  0  0  0  0
  6 17  1  0  0  0  0
  7 11  1  0  0  0  0
  7  8  2  0  0  0  0
  8  9  1  0  0  0  0
  8 18  1  0  0  0  0
  9 10  1  0  0  0  0
  9 19  1  0  0  0  0
  9 20  1  0  0  0  0
 10 11  1  0  0  0  0
 10 21  1  0  0  0  0
 10 22  1  0  0  0  0
 11 23  1  0  0  0  0
 11 24  1  0  0  0  0
M  END
$$$$
