
 OpenBabel03202621282D

 18 19  0  0  0  0  0  0  0  0999 V2000
   -1.5878   -0.8090    0.0000 C   0  0  0  0  0  0  0  0  0  0  0  0
   -1.0000   -0.0000    0.0000 C   0  0  0  0  0  0  0  0  0  0  0  0
   -1.3090    0.9511    0.0000 C   0  0  0  0  0  0  0  0  0  0  0  0
   -0.5000    1.5388    0.0000 N   0  0  0  0  0  0  0  0  0  0  0  0
   -0.5000    2.5388    0.0000 C   0  0  0  0  0  0  0  0  0  0  0  0
   -1.3660    3.0388    0.0000 C   0  0  0  0  0  0  0  0  0  0  0  0
   -1.3660    4.0388    0.0000 O   0  0  0  0  0  0  0  0  0  0  0  0
   -2.2321    2.5388    0.0000 C   0  0  0  0  0  0  0  0  0  0  0  0
   -2.2321    1.5388    0.0000 C   0  0  0  0  0  0  0  0  0  0  0  0
   -3.0981    1.0388    0.0000 C   0  0  0  0  0  0  0  0  0  0  0  0
   -3.9641    1.5388    0.0000 C   0  0  0  0  0  0  0  0  0  0  0  0
   -3.9641    2.5388    0.0000 C   0  0  0  0  0  0  0  0  0  0  0  0
   -4.8301    3.0388    0.0000 N   0  3  0  0  0  0  0  0  0  0  0  0
   -4.8301    4.0388    0.0000 O   0  0  0  0  0  0  0  0  0  0  0  0
   -5.6962    2.5388    0.0000 O   0  5  0  0  0  0  0  0  0  0  0  0
   -3.0981    3.0388    0.0000 C   0  0  0  0  0  0  0  0  0  0  0  0
    0.3090    0.9511    0.0000 N   0  0  0  0  0  0  0  0  0  0  0  0
    0.0000    0.0000    0.0000 N   0  0  0  0  0  0  0  0  0  0  0  0
  1  2  1  0  0  0  0
  2 18  1  0  0  0  0
  2  3  2  0  0  0  0
  3  4  1  0  0  0  0
  4  5  1  0  0  0  0
  4 17  1  0  0  0  0
  5  6  1  0  0  0  0
  6  7  2  0  0  0  0
  6  8  1  0  0  0  0
  8 16  2  0  0  0  0
  8  9  1  0  0  0  0
  9 10  2  0  0  0  0
 10 11  1  0  0  0  0
 11 12  2  0  0  0  0
 12 13  1  0  0  0  0
 12 16  1  0  0  0  0
 13 14  2  0  0  0  0
 13 15  1  0  0  0  0
 17 18  2  0  0  0  0
M  CHG  2  13   1  15  -1
M  END
$$$$
