
 OpenBabel03202621352D

 25 25  0  0  0  0  0  0  0  0999 V2000
   -3.4641   -3.0000    0.0000 C   0  0  0  0  0  0  0  0  0  0  0  0
   -2.5981   -3.5000    0.0000 S   0  0  0  0  0  0  0  0  0  0  0  0
   -1.0501   -2.7945   -0.3070 C   0  0  0  0  0  0  0  0  0  0  0  0
    0.0859   -3.6441   -1.1928 S   0  0  0  0  0  0  0  0  0  0  0  0
   -0.9133   -1.5402    0.2499 N   0  0  0  0  0  0  0  0  0  0  0  0
    0.2007   -0.7149    0.1613 C   0  0  0  0  0  0  0  0  0  0  0  0
    1.3595   -1.1027    0.2381 O   0  0  0  0  0  0  0  0  0  0  0  0
   -0.0702    0.7545    0.0796 C   0  0  0  0  0  0  0  0  0  0  0  0
   -1.3504    1.2819   -0.1258 C   0  0  0  0  0  0  0  0  0  0  0  0
   -1.5286    2.6616   -0.2458 C   0  0  0  0  0  0  0  0  0  0  0  0
   -0.4297    3.5193   -0.1917 C   0  0  0  0  0  0  0  0  0  0  0  0
    0.8644    3.0069   -0.0179 C   0  0  0  0  0  0  0  0  0  0  0  0
    2.0642    3.9236    0.0197 C   0  0  0  0  0  0  0  0  0  0  0  0
    2.4653    4.1975    1.2903 F   0  0  0  0  0  0  0  0  0  0  0  0
    1.8329    5.1299   -0.5696 F   0  0  0  0  0  0  0  0  0  0  0  0
    3.1488    3.4025   -0.6163 F   0  0  0  0  0  0  0  0  0  0  0  0
    1.0302    1.6225    0.1330 C   0  0  0  0  0  0  0  0  0  0  0  0
   -3.5499   -2.7753   -1.0822 H   0  0  0  0  0  0  0  0  0  0  0  0
   -4.1471   -3.8403    0.2270 H   0  0  0  0  0  0  0  0  0  0  0  0
   -4.3907   -2.4650    0.0000 H   0  0  0  0  0  0  0  0  0  0  0  0
   -1.7558   -1.1550    0.6412 H   0  0  0  0  0  0  0  0  0  0  0  0
   -2.2297    0.6532   -0.2251 H   0  0  0  0  0  0  0  0  0  0  0  0
   -2.5256    3.0688   -0.4051 H   0  0  0  0  0  0  0  0  0  0  0  0
   -0.5855    4.5914   -0.3008 H   0  0  0  0  0  0  0  0  0  0  0  0
    2.0347    1.2169    0.2680 H   0  0  0  0  0  0  0  0  0  0  0  0
  1  2  1  0  0  0  0
  1 18  1  0  0  0  0
  1 19  1  0  0  0  0
  1 20  1  0  0  0  0
  2  3  1  0  0  0  0
  3  4  2  0  0  0  0
  3  5  1  0  0  0  0
  5  6  1  0  0  0  0
  5 21  1  0  0  0  0
  6  7  2  0  0  0  0
  6  8  1  0  0  0  0
  8 17  2  0  0  0  0
  8  9  1  0  0  0  0
  9 10  2  0  0  0  0
  9 22  1  0  0  0  0
 10 11  1  0  0  0  0
 10 23  1  0  0  0  0
 11 12  2  0  0  0  0
 11 24  1  0  0  0  0
 12 13  1  0  0  0  0
 12 17  1  0  0  0  0
 13 14  1  0  0  0  0
 13 15  1  0  0  0  0
 13 16  1  0  0  0  0
 17 25  1  0  0  0  0
M  END
$$$$
