
 OpenBabel03202621352D

 16 16  0  0  0  0  0  0  0  0999 V2000
    2.5032   -0.9479    0.0000 C   0  0  0  0  0  0  0  0  0  0  0  0
    1.7601   -0.2788    0.0000 S   0  0  0  0  0  0  0  0  0  0  0  0
    0.1149   -0.7612    0.0000 C   0  0  0  0  0  0  0  0  0  0  0  0
   -0.4335   -2.0653    0.0000 C   0  0  0  0  0  0  0  0  0  0  0  0
   -1.7998   -1.8825    0.0000 C   0  0  0  0  0  0  0  0  0  0  0  0
   -2.1102   -0.5556    0.0000 O   0  0  0  0  0  0  0  0  0  0  0  0
   -0.9227    0.1410    0.0000 C   0  0  0  0  0  0  0  0  0  0  0  0
   -0.8565    1.5815    0.0000 C   0  0  0  0  0  0  0  0  0  0  0  0
    0.1268    2.3026    0.0000 O   0  0  0  0  0  0  0  0  0  0  0  0
   -2.0750    2.1721    0.0000 O   0  0  0  0  0  0  0  0  0  0  0  0
    2.1124   -1.9694   -0.0000 H   0  0  0  0  0  0  0  0  0  0  0  0
    3.4342   -0.3734   -0.0000 H   0  0  0  0  0  0  0  0  0  0  0  0
    3.2984   -1.6639    0.0000 H   0  0  0  0  0  0  0  0  0  0  0  0
    0.0799   -3.0156    0.0000 H   0  0  0  0  0  0  0  0  0  0  0  0
   -2.6318   -2.5696    0.0000 H   0  0  0  0  0  0  0  0  0  0  0  0
   -1.7890    3.1098   -0.0000 H   0  0  0  0  0  0  0  0  0  0  0  0
  1  2  1  0  0  0  0
  1 11  1  0  0  0  0
  1 12  1  0  0  0  0
  1 13  1  0  0  0  0
  2  3  1  0  0  0  0
  3  7  2  0  0  0  0
  3  4  1  0  0  0  0
  4  5  2  0  0  0  0
  4 14  1  0  0  0  0
  5  6  1  0  0  0  0
  5 15  1  0  0  0  0
  6  7  1  0  0  0  0
  7  8  1  0  0  0  0
  8  9  2  0  0  0  0
  8 10  1  0  0  0  0
 10 16  1  0  0  0  0
M  END
$$$$
