
 OpenBabel03202621372D

 23 23  0  0  0  0  0  0  0  0999 V2000
    3.4641    1.0000    0.0000 C   0  0  0  0  0  0  0  0  0  0  0  0
    2.5981    1.5000    0.0000 S   0  0  0  0  0  0  0  0  0  0  0  0
    2.1837    1.2126   -1.7104 C   0  0  0  0  0  0  0  0  0  0  0  0
    2.0813    2.3699   -2.9122 S   0  0  0  0  0  0  0  0  0  0  0  0
    2.0252   -0.1419   -1.9407 N   0  0  0  0  0  0  0  0  0  0  0  0
    1.2157   -0.8715   -1.0768 C   0  0  0  0  0  0  0  0  0  0  0  0
    1.0797   -2.2488   -1.1239 C   0  0  0  0  0  0  0  0  0  0  0  0
    0.0177   -2.8080   -0.4420 C   0  0  0  0  0  0  0  0  0  0  0  0
   -0.9413   -1.9341    0.0628 C   0  0  0  0  0  0  0  0  0  0  0  0
   -2.1129   -2.4908    0.4236 F   0  0  0  0  0  0  0  0  0  0  0  0
   -0.8660   -0.5000    0.0000 C   0  0  0  0  0  0  0  0  0  0  0  0
   -1.7321    0.0000    0.0000 C   0  0  0  0  0  0  0  0  0  0  0  0
    0.3521   -0.0884   -0.3013 C   0  0  0  0  0  0  0  0  0  0  0  0
    3.3760    0.5011    0.9848 H   0  0  0  0  0  0  0  0  0  0  0  0
    4.1601    1.8545    0.1186 H   0  0  0  0  0  0  0  0  0  0  0  0
    4.3907    0.4650    0.0000 H   0  0  0  0  0  0  0  0  0  0  0  0
    2.0381   -0.4717   -2.9060 H   0  0  0  0  0  0  0  0  0  0  0  0
    1.7739   -2.8590   -1.6918 H   0  0  0  0  0  0  0  0  0  0  0  0
   -0.1588   -3.8745   -0.4433 H   0  0  0  0  0  0  0  0  0  0  0  0
   -1.4375    1.0750    0.0746 H   0  0  0  0  0  0  0  0  0  0  0  0
   -2.0679   -0.1919   -1.0536 H   0  0  0  0  0  0  0  0  0  0  0  0
   -2.6588    0.5350    0.0000 H   0  0  0  0  0  0  0  0  0  0  0  0
    0.4039    0.9964   -0.2175 H   0  0  0  0  0  0  0  0  0  0  0  0
  1  2  1  0  0  0  0
  1 14  1  0  0  0  0
  1 15  1  0  0  0  0
  1 16  1  0  0  0  0
  2  3  1  0  0  0  0
  3  4  2  0  0  0  0
  3  5  1  0  0  0  0
  5  6  1  0  0  0  0
  5 17  1  0  0  0  0
  6 13  2  0  0  0  0
  6  7  1  0  0  0  0
  7  8  2  0  0  0  0
  7 18  1  0  0  0  0
  8  9  1  0  0  0  0
  8 19  1  0  0  0  0
  9 10  1  0  0  0  0
  9 11  2  0  0  0  0
 11 12  1  0  0  0  0
 11 13  1  0  0  0  0
 12 20  1  0  0  0  0
 12 21  1  0  0  0  0
 12 22  1  0  0  0  0
 13 23  1  0  0  0  0
M  END
$$$$
