
 OpenBabel03202621372D

 27 27  0  0  1  0  0  0  0  0999 V2000
    2.5391    0.9483    0.0000 C   0  0  0  0  0  0  0  0  0  0  0  0
    2.7979   -0.0176    0.0000 C   0  0  0  0  0  0  0  0  0  0  0  0
    1.8367   -0.9699    0.1135 C   0  0  0  0  0  0  0  0  0  0  0  0
    0.2970   -0.8420    0.2416 C   0  0  0  0  0  0  0  0  0  0  0  0
   -0.6397    0.3479   -0.2675 C   0  0  3  0  0  0  0  0  0  0  0  0
   -0.4630    0.4357   -1.6981 O   0  0  0  0  0  0  0  0  0  0  0  0
   -0.3046    1.7224    0.3231 C   0  0  0  0  0  0  0  0  0  0  0  0
   -1.4669    2.6906    0.2317 C   0  0  0  0  0  0  0  0  0  0  0  0
   -2.5992    2.2269    0.9506 O   0  0  0  0  0  0  0  0  0  0  0  0
   -2.9371    0.9570    0.5739 C   0  0  0  0  0  0  0  0  0  0  0  0
   -2.1585    0.0458   -0.0396 C   0  0  0  0  0  0  0  0  0  0  0  0
   -2.5079   -1.0717   -0.5236 O   0  5  0  0  0  0  0  0  0  0  0  0
    4.2005   -0.5177   -0.0835 N   0  3  0  0  0  0  0  0  0  0  0  0
    4.4187   -1.7264    0.0886 O   0  0  0  0  0  0  0  0  0  0  0  0
    5.0954    0.3169   -0.3038 O   0  5  0  0  0  0  0  0  0  0  0  0
    3.1337    1.3096    0.8721 H   0  0  0  0  0  0  0  0  0  0  0  0
    2.9481    1.2570   -0.9907 H   0  0  0  0  0  0  0  0  0  0  0  0
    2.2622    1.9818    0.0000 H   0  0  0  0  0  0  0  0  0  0  0  0
    2.1245   -2.0233    0.1336 H   0  0  0  0  0  0  0  0  0  0  0  0
    0.0631   -1.0301    1.2982 H   0  0  0  0  0  0  0  0  0  0  0  0
   -0.0381   -1.7361   -0.3063 H   0  0  0  0  0  0  0  0  0  0  0  0
   -1.2105   -0.1354   -1.9937 H   0  0  0  0  0  0  0  0  0  0  0  0
    0.4636    2.2134   -0.2653 H   0  0  0  0  0  0  0  0  0  0  0  0
    0.0044    1.6252    1.3704 H   0  0  0  0  0  0  0  0  0  0  0  0
   -1.1698    3.6525    0.6674 H   0  0  0  0  0  0  0  0  0  0  0  0
   -1.7382    2.8953   -0.8136 H   0  0  0  0  0  0  0  0  0  0  0  0
   -3.9786    0.7663    0.8040 H   0  0  0  0  0  0  0  0  0  0  0  0
  1  2  1  0  0  0  0
  1 16  1  0  0  0  0
  1 17  1  0  0  0  0
  1 18  1  0  0  0  0
  2  3  2  3  0  0  0
  2 13  1  0  0  0  0
  3  4  1  0  0  0  0
  3 19  1  0  0  0  0
  4  5  1  0  0  0  0
  4 20  1  0  0  0  0
  4 21  1  0  0  0  0
  5 11  1  0  0  0  0
  5  6  1  0  0  0  0
  5  7  1  0  0  0  0
  6 22  1  0  0  0  0
  7  8  1  0  0  0  0
  7 23  1  0  0  0  0
  7 24  1  0  0  0  0
  8  9  1  0  0  0  0
  8 25  1  0  0  0  0
  8 26  1  0  0  0  0
  9 10  1  0  0  0  0
 10 11  2  0  0  0  0
 10 27  1  0  0  0  0
 11 12  1  0  0  0  0
 13 14  2  0  0  0  0
 13 15  1  0  0  0  0
M  CHG  3  12  -1  13   1  15  -1
M  END
$$$$
