
 OpenBabel03202621282D

 16 15  0  0  1  0  0  0  0  0999 V2000
   -4.4641    0.0000    0.0000 C   0  0  0  0  0  0  0  0  0  0  0  0
   -3.5981   -0.5000    0.0000 C   0  0  0  0  0  0  0  0  0  0  0  0
   -2.7321    0.0000    0.0000 C   0  0  0  0  0  0  0  0  0  0  0  0
   -2.7321    1.0000    0.0000 C   0  0  0  0  0  0  0  0  0  0  0  0
   -3.7321    1.0000    0.0000 O   0  0  0  0  0  0  0  0  0  0  0  0
   -2.7321    2.0000    0.0000 C   0  0  0  0  0  0  0  0  0  0  0  0
   -3.5981    2.5000    0.0000 C   0  0  0  0  0  0  0  0  0  0  0  0
   -3.5981    3.5000    0.0000 C   0  0  0  0  0  0  0  0  0  0  0  0
   -1.7321    1.0000    0.0000 C   0  0  1  0  0  0  0  0  0  0  0  0
   -1.7321    2.0000    0.0000 C   0  0  0  0  0  0  0  0  0  0  0  0
   -0.7321    1.0000    0.0000 S   0  0  0  0  0  0  0  0  0  0  0  0
   -0.2321    1.8660    0.0000 C   0  0  0  0  0  0  0  0  0  0  0  0
   -1.7321    0.0000    0.0000 C   0  0  0  0  0  0  0  0  0  0  0  0
   -2.5981   -0.5000    0.0000 O   0  0  0  0  0  0  0  0  0  0  0  0
   -0.8660   -0.5000    0.0000 O   0  0  0  0  0  0  0  0  0  0  0  0
    0.0000   -0.0000    0.0000 C   0  0  0  0  0  0  0  0  0  0  0  0
  1  2  1  0  0  0  0
  2  3  1  0  0  0  0
  3  4  1  0  0  0  0
  4  5  1  0  0  0  0
  4  6  1  0  0  0  0
  4  9  1  0  0  0  0
  6  7  1  0  0  0  0
  7  8  1  0  0  0  0
  9 10  1  6  0  0  0
  9 11  1  0  0  0  0
  9 13  1  0  0  0  0
 11 12  1  0  0  0  0
 13 14  2  0  0  0  0
 13 15  1  0  0  0  0
 15 16  1  0  0  0  0
M  END
$$$$
