
 OpenBabel03202621382D

 34 35  0  0  1  0  0  0  0  0999 V2000
    4.6131    0.2350    0.0452 O   0  5  0  0  0  0  0  0  0  0  0  0
    3.7003   -0.5698    0.3542 C   0  0  0  0  0  0  0  0  0  0  0  0
    3.7922   -1.8891    0.6524 C   0  0  0  0  0  0  0  0  0  0  0  0
    2.7870   -2.7513    1.0404 O   0  0  0  0  0  0  0  0  0  0  0  0
    1.4872   -2.1630    0.9271 C   0  0  0  0  0  0  0  0  0  0  0  0
    1.4759   -0.7196    1.4276 C   0  0  0  0  0  0  0  0  0  0  0  0
    2.3662    0.0681    0.4890 C   0  0  0  0  0  0  0  0  0  0  0  0
    1.9510    1.1558   -0.2096 C   0  0  0  0  0  0  0  0  0  0  0  0
    0.6728    1.9171   -0.0257 C   0  0  0  0  0  0  0  0  0  0  0  0
   -0.5456    1.5473   -0.7751 N   0  0  0  0  0  0  0  0  0  0  0  0
   -1.7179    2.2259   -0.2170 C   0  0  0  0  0  0  0  0  0  0  0  0
   -3.0159    1.4310   -0.0936 C   0  0  0  0  0  0  0  0  0  0  0  0
   -2.7419   -0.0197    0.2470 C   0  0  0  0  0  0  0  0  0  0  0  0
   -1.9689   -0.6227   -0.9107 C   0  0  1  0  0  0  0  0  0  0  0  0
   -1.6895   -1.9943   -0.6196 O   0  0  0  0  0  0  0  0  0  0  0  0
   -0.6608    0.1462   -1.1845 C   0  0  0  0  0  0  0  0  0  0  0  0
    4.7367   -2.4101    0.6349 H   0  0  0  0  0  0  0  0  0  0  0  0
    0.7978   -2.7724    1.5207 H   0  0  0  0  0  0  0  0  0  0  0  0
    1.1653   -2.2492   -0.1184 H   0  0  0  0  0  0  0  0  0  0  0  0
    1.8729   -0.6654    2.4490 H   0  0  0  0  0  0  0  0  0  0  0  0
    0.4494   -0.3460    1.4597 H   0  0  0  0  0  0  0  0  0  0  0  0
    2.6586    1.6007   -0.9060 H   0  0  0  0  0  0  0  0  0  0  0  0
    0.8981    2.9574   -0.3027 H   0  0  0  0  0  0  0  0  0  0  0  0
    0.4691    1.9515    1.0529 H   0  0  0  0  0  0  0  0  0  0  0  0
   -1.5036    2.6132    0.7881 H   0  0  0  0  0  0  0  0  0  0  0  0
   -1.9167    3.1153   -0.8273 H   0  0  0  0  0  0  0  0  0  0  0  0
   -3.6467    1.8781    0.6836 H   0  0  0  0  0  0  0  0  0  0  0  0
   -3.5800    1.4895   -1.0327 H   0  0  0  0  0  0  0  0  0  0  0  0
   -3.6813   -0.5636    0.4013 H   0  0  0  0  0  0  0  0  0  0  0  0
   -2.1782   -0.1110    1.1844 H   0  0  0  0  0  0  0  0  0  0  0  0
   -2.5896   -0.6038   -1.8150 H   0  0  0  0  0  0  0  0  0  0  0  0
   -2.5139   -2.4126   -0.3240 H   0  0  0  0  0  0  0  0  0  0  0  0
   -0.4914    0.1192   -2.2692 H   0  0  0  0  0  0  0  0  0  0  0  0
    0.1487   -0.4652   -0.8031 H   0  0  0  0  0  0  0  0  0  0  0  0
  1  2  1  0  0  0  0
  2  7  1  0  0  0  0
  2  3  2  0  0  0  0
  3  4  1  0  0  0  0
  3 17  1  0  0  0  0
  4  5  1  0  0  0  0
  5  6  1  0  0  0  0
  5 18  1  0  0  0  0
  5 19  1  0  0  0  0
  6  7  1  0  0  0  0
  6 20  1  0  0  0  0
  6 21  1  0  0  0  0
  7  8  2  3  0  0  0
  8  9  1  0  0  0  0
  8 22  1  0  0  0  0
  9 10  1  0  0  0  0
  9 23  1  0  0  0  0
  9 24  1  0  0  0  0
 10 16  1  0  0  0  0
 10 11  1  0  0  0  0
 11 12  1  0  0  0  0
 11 25  1  0  0  0  0
 11 26  1  0  0  0  0
 12 13  1  0  0  0  0
 12 27  1  0  0  0  0
 12 28  1  0  0  0  0
 13 14  1  0  0  0  0
 13 29  1  0  0  0  0
 13 30  1  0  0  0  0
 14 15  1  0  0  0  0
 14 16  1  0  0  0  0
 14 31  1  1  0  0  0
 15 32  1  0  0  0  0
 16 33  1  0  0  0  0
 16 34  1  0  0  0  0
M  CHG  1   1  -1
M  END
$$$$
