
 OpenBabel03202621402D

 20 19  0  0  1  0  0  0  0  0999 V2000
    1.7321   -2.0000    0.0000 C   0  0  0  0  0  0  0  0  0  0  0  0
    2.5981   -1.5000    0.0000 C   0  0  0  0  0  0  0  0  0  0  0  0
    2.5981   -0.5000    0.0000 C   0  0  2  0  0  0  0  0  0  0  0  0
    3.4641    0.0000    0.0000 C   0  0  0  0  0  0  0  0  0  0  0  0
    1.8539    0.7299   -0.0000 C   0  0  0  0  0  0  0  0  0  0  0  0
    1.8220    1.9332    0.0000 O   0  0  0  0  0  0  0  0  0  0  0  0
    0.8660   -0.5000    0.0000 S   0  0  0  0  0  0  0  0  0  0  0  0
    0.0000    0.0000    0.0000 C   0  0  0  0  0  0  0  0  0  0  0  0
    0.4001   -2.1871    0.0000 H   0  0  0  0  0  0  0  0  0  0  0  0
    1.8825   -3.1815   -0.0000 H   0  0  0  0  0  0  0  0  0  0  0  0
    0.8055   -2.5350    0.0000 H   0  0  0  0  0  0  0  0  0  0  0  0
    3.1312   -2.5287    0.0000 H   0  0  0  0  0  0  0  0  0  0  0  0
    3.8404   -2.1184    0.0000 H   0  0  0  0  0  0  0  0  0  0  0  0
    3.4907   -0.8350   -0.0000 H   0  0  0  0  0  0  0  0  0  0  0  0
    4.7831   -0.5287    0.0000 H   0  0  0  0  0  0  0  0  0  0  0  0
    3.5628    1.1498    0.0000 H   0  0  0  0  0  0  0  0  0  0  0  0
    4.3907    0.5350    0.0000 H   0  0  0  0  0  0  0  0  0  0  0  0
   -0.0193    1.1064    0.0000 H   0  0  0  0  0  0  0  0  0  0  0  0
   -0.8170   -0.7369    0.0000 H   0  0  0  0  0  0  0  0  0  0  0  0
   -0.9266    0.5350    0.0000 H   0  0  0  0  0  0  0  0  0  0  0  0
  1  2  1  0  0  0  0
  1  9  1  0  0  0  0
  1 10  1  0  0  0  0
  1 11  1  0  0  0  0
  2  3  1  0  0  0  0
  2 12  1  0  0  0  0
  2 13  1  0  0  0  0
  3  4  1  0  0  0  0
  3  5  1  0  0  0  0
  3 14  1  6  0  0  0
  4 15  1  0  0  0  0
  4 16  1  0  0  0  0
  4 17  1  0  0  0  0
  5  6  2  0  0  0  0
  5  7  1  0  0  0  0
  7  8  1  0  0  0  0
  8 18  1  0  0  0  0
  8 19  1  0  0  0  0
  8 20  1  0  0  0  0
M  END
$$$$
