
 OpenBabel03202621352D

 26 27  0  0  0  0  0  0  0  0999 V2000
    0.4078   -3.1452    0.0116 O   0  0  0  0  0  0  0  0  0  0  0  0
    0.5917   -1.9340    0.0445 C   0  0  0  0  0  0  0  0  0  0  0  0
    1.7536   -1.2659    0.1055 O   0  0  0  0  0  0  0  0  0  0  0  0
    3.0605   -1.8068    0.0756 C   0  0  0  0  0  0  0  0  0  0  0  0
    3.3543   -3.1143    0.0639 C   0  0  0  0  0  0  0  0  0  0  0  0
    4.7611   -3.5991   -0.0315 C   0  0  0  0  0  0  0  0  0  0  0  0
    5.7801   -2.6078   -0.1894 O   0  0  0  0  0  0  0  0  0  0  0  0
    5.3920   -1.2990   -0.0971 C   0  0  0  0  0  0  0  0  0  0  0  0
    4.1411   -0.8192    0.0394 C   0  0  0  0  0  0  0  0  0  0  0  0
    3.7331    0.3714    0.1352 O   0  5  0  0  0  0  0  0  0  0  0  0
   -0.5268   -0.9604    0.0221 C   0  0  0  0  0  0  0  0  0  0  0  0
   -1.8210   -1.5235    0.0027 C   0  0  0  0  0  0  0  0  0  0  0  0
   -2.9608   -0.7196   -0.0052 C   0  0  0  0  0  0  0  0  0  0  0  0
   -2.8238    0.6629    0.0016 C   0  0  0  0  0  0  0  0  0  0  0  0
   -1.5498    1.2343    0.0085 C   0  0  0  0  0  0  0  0  0  0  0  0
   -0.3991    0.4351    0.0178 C   0  0  0  0  0  0  0  0  0  0  0  0
    0.7684    1.1477    0.0172 O   0  0  0  0  0  0  0  0  0  0  0  0
    2.5855   -3.8714    0.1107 H   0  0  0  0  0  0  0  0  0  0  0  0
    4.8380   -4.2779   -0.8885 H   0  0  0  0  0  0  0  0  0  0  0  0
    5.0053   -4.1821    0.8637 H   0  0  0  0  0  0  0  0  0  0  0  0
    6.2516   -0.6440   -0.1547 H   0  0  0  0  0  0  0  0  0  0  0  0
   -1.9411   -2.6057   -0.0045 H   0  0  0  0  0  0  0  0  0  0  0  0
   -3.9461   -1.1770   -0.0155 H   0  0  0  0  0  0  0  0  0  0  0  0
   -3.7035    1.2995   -0.0008 H   0  0  0  0  0  0  0  0  0  0  0  0
   -1.4418    2.3162    0.0082 H   0  0  0  0  0  0  0  0  0  0  0  0
    1.5987    0.5988    0.0504 H   0  0  0  0  0  0  0  0  0  0  0  0
  1  2  2  0  0  0  0
  2  3  1  0  0  0  0
  2 11  1  0  0  0  0
  3  4  1  0  0  0  0
  4  9  1  0  0  0  0
  4  5  2  0  0  0  0
  5  6  1  0  0  0  0
  5 18  1  0  0  0  0
  6  7  1  0  0  0  0
  6 19  1  0  0  0  0
  6 20  1  0  0  0  0
  7  8  1  0  0  0  0
  8  9  2  0  0  0  0
  8 21  1  0  0  0  0
  9 10  1  0  0  0  0
 11 16  2  0  0  0  0
 11 12  1  0  0  0  0
 12 13  2  0  0  0  0
 12 22  1  0  0  0  0
 13 14  1  0  0  0  0
 13 23  1  0  0  0  0
 14 15  2  0  0  0  0
 14 24  1  0  0  0  0
 15 16  1  0  0  0  0
 15 25  1  0  0  0  0
 16 17  1  0  0  0  0
 17 26  1  0  0  0  0
M  CHG  1  10  -1
M  END
$$$$
