
 OpenBabel03202621312D

 19 19  0  0  0  0  0  0  0  0999 V2000
    2.5032   -0.9479    0.0000 C   0  0  0  0  0  0  0  0  0  0  0  0
    1.7601   -0.2788    0.0000 S   0  0  0  0  0  0  0  0  0  0  0  0
    0.1900   -0.9682    0.0897 C   0  0  0  0  0  0  0  0  0  0  0  0
   -0.0618   -2.3096    0.0187 N   0  0  0  0  0  0  0  0  0  0  0  0
   -1.3725   -2.3617   -0.0130 C   0  0  0  0  0  0  0  0  0  0  0  0
   -1.8790   -1.1024    0.0530 N   0  0  0  0  0  0  0  0  0  0  0  0
   -3.2474   -0.6411   -0.0244 C   0  0  0  0  0  0  0  0  0  0  0  0
   -4.2881   -1.7471    0.0113 C   0  0  0  0  0  0  0  0  0  0  0  0
   -5.6337   -1.1781    0.0493 C   0  0  0  0  0  0  0  0  0  0  0  0
   -6.6981   -0.7181    0.0870 N   0  0  0  0  0  0  0  0  0  0  0  0
   -0.8960   -0.1951    0.1372 N   0  0  0  0  0  0  0  0  0  0  0  0
    2.4193   -1.3303   -1.0396 H   0  0  0  0  0  0  0  0  0  0  0  0
    3.3617   -0.2491    0.0173 H   0  0  0  0  0  0  0  0  0  0  0  0
    3.2984   -1.6639    0.0000 H   0  0  0  0  0  0  0  0  0  0  0  0
   -1.9638   -3.2619   -0.0992 H   0  0  0  0  0  0  0  0  0  0  0  0
   -3.3288   -0.0664   -0.9560 H   0  0  0  0  0  0  0  0  0  0  0  0
   -3.3921    0.0566    0.8105 H   0  0  0  0  0  0  0  0  0  0  0  0
   -4.1362   -2.3860    0.8889 H   0  0  0  0  0  0  0  0  0  0  0  0
   -4.1871   -2.3859   -0.8736 H   0  0  0  0  0  0  0  0  0  0  0  0
  1  2  1  0  0  0  0
  1 12  1  0  0  0  0
  1 13  1  0  0  0  0
  1 14  1  0  0  0  0
  2  3  1  0  0  0  0
  3 11  2  0  0  0  0
  3  4  1  0  0  0  0
  4  5  2  0  0  0  0
  5  6  1  0  0  0  0
  5 15  1  0  0  0  0
  6  7  1  0  0  0  0
  6 11  1  0  0  0  0
  7  8  1  0  0  0  0
  7 16  1  0  0  0  0
  7 17  1  0  0  0  0
  8  9  1  0  0  0  0
  8 18  1  0  0  0  0
  8 19  1  0  0  0  0
  9 10  3  0  0  0  0
M  END
$$$$
