
 OpenBabel03202621342D

 22 22  0  0  1  0  0  0  0  0999 V2000
   -2.5981   -0.5000    0.0000 C   0  0  0  0  0  0  0  0  0  0  0  0
   -2.5981   -1.5000    0.0000 S   0  0  0  0  0  0  0  0  0  0  0  0
   -0.8017   -1.9127    0.1102 C   0  0  0  0  0  0  0  0  0  0  0  0
    0.0901   -1.3597   -1.0287 C   0  0  1  0  0  0  0  0  0  0  0  0
    1.3512   -2.0444   -1.0837 O   0  0  0  0  0  0  0  0  0  0  0  0
    0.3489    0.1293   -0.8596 C   0  0  0  0  0  0  0  0  0  0  0  0
   -0.3040    1.0476   -1.6771 C   0  0  0  0  0  0  0  0  0  0  0  0
   -0.1614    2.4003   -1.3958 C   0  0  0  0  0  0  0  0  0  0  0  0
   -1.1272    3.6735   -2.4069 Br  0  0  0  0  0  0  0  0  0  0  0  0
    0.6530    2.8224   -0.3554 C   0  0  0  0  0  0  0  0  0  0  0  0
    1.2893    1.8479    0.3889 C   0  0  0  0  0  0  0  0  0  0  0  0
    1.1354    0.5224    0.1767 N   0  0  0  0  0  0  0  0  0  0  0  0
   -3.0465   -0.3260    0.9973 H   0  0  0  0  0  0  0  0  0  0  0  0
   -3.3830   -0.3282   -0.7610 H   0  0  0  0  0  0  0  0  0  0  0  0
   -2.5981    0.5700    0.0000 H   0  0  0  0  0  0  0  0  0  0  0  0
   -0.7525   -3.0083    0.0975 H   0  0  0  0  0  0  0  0  0  0  0  0
   -0.4185   -1.6152    1.0951 H   0  0  0  0  0  0  0  0  0  0  0  0
   -0.3865   -1.5528   -1.9971 H   0  0  0  0  0  0  0  0  0  0  0  0
    1.2678   -2.8979   -0.6341 H   0  0  0  0  0  0  0  0  0  0  0  0
   -0.9530    0.7119   -2.4794 H   0  0  0  0  0  0  0  0  0  0  0  0
    0.7866    3.8706   -0.1198 H   0  0  0  0  0  0  0  0  0  0  0  0
    1.9504    2.1123    1.2091 H   0  0  0  0  0  0  0  0  0  0  0  0
  1  2  1  0  0  0  0
  1 13  1  0  0  0  0
  1 14  1  0  0  0  0
  1 15  1  0  0  0  0
  2  3  1  0  0  0  0
  3  4  1  0  0  0  0
  3 16  1  0  0  0  0
  3 17  1  0  0  0  0
  4  5  1  0  0  0  0
  4  6  1  0  0  0  0
  4 18  1  1  0  0  0
  5 19  1  0  0  0  0
  6 12  2  0  0  0  0
  6  7  1  0  0  0  0
  7  8  2  0  0  0  0
  7 20  1  0  0  0  0
  8  9  1  0  0  0  0
  8 10  1  0  0  0  0
 10 11  2  0  0  0  0
 10 21  1  0  0  0  0
 11 12  1  0  0  0  0
 11 22  1  0  0  0  0
M  END
$$$$
