
 OpenBabel03202621312D

 30 29  0  0  1  0  0  0  0  0999 V2000
   -2.5981    2.5000    0.0000 C   0  0  0  0  0  0  0  0  0  0  0  0
   -2.5981    1.5000    0.0000 C   0  0  1  0  0  0  0  0  0  0  0  0
   -3.4709    0.6169    1.0529 C   0  0  0  0  0  0  0  0  0  0  0  0
   -3.3613   -1.2124    1.0012 S   0  0  0  0  0  0  0  0  0  0  0  0
   -5.0050   -1.7178    0.6782 C   0  0  0  0  0  0  0  0  0  0  0  0
   -6.0027   -0.9898    0.8641 O   0  0  0  0  0  0  0  0  0  0  0  0
   -2.1278    0.7315   -1.1301 O   0  0  0  0  0  0  0  0  0  0  0  0
   -0.8761    1.2519   -1.4643 C   0  0  0  0  0  0  0  0  0  0  0  0
    0.0000    1.0000    0.0000 C   0  0  0  0  0  0  0  0  0  0  0  0
    1.0000    1.0000    0.0000 C   0  0  0  0  0  0  0  0  0  0  0  0
    0.5000    1.8660    0.0000 C   0  0  0  0  0  0  0  0  0  0  0  0
    0.0000    0.0000    0.0000 C   0  0  0  0  0  0  0  0  0  0  0  0
   -2.8433    2.8140   -1.0589 H   0  0  0  0  0  0  0  0  0  0  0  0
   -3.4066    2.7625    0.7244 H   0  0  0  0  0  0  0  0  0  0  0  0
   -2.5981    3.5700    0.0000 H   0  0  0  0  0  0  0  0  0  0  0  0
   -3.5652    1.4023   -0.5708 H   0  0  0  0  0  0  0  0  0  0  0  0
   -3.3816    0.9738    2.0854 H   0  0  0  0  0  0  0  0  0  0  0  0
   -4.5520    0.8249    0.8369 H   0  0  0  0  0  0  0  0  0  0  0  0
   -5.1312   -2.7455    0.2919 H   0  0  0  0  0  0  0  0  0  0  0  0
   -1.0286    2.2911   -1.8193 H   0  0  0  0  0  0  0  0  0  0  0  0
   -0.4643    0.7376   -2.3509 H   0  0  0  0  0  0  0  0  0  0  0  0
    1.4742    0.4897   -1.0369 H   0  0  0  0  0  0  0  0  0  0  0  0
    1.4163    0.5505    1.0901 H   0  0  0  0  0  0  0  0  0  0  0  0
    2.0700    1.0000    0.0000 H   0  0  0  0  0  0  0  0  0  0  0  0
    0.5232    2.4571   -1.0519 H   0  0  0  0  0  0  0  0  0  0  0  0
   -0.1817    2.4942    0.6947 H   0  0  0  0  0  0  0  0  0  0  0  0
    1.0350    2.7926    0.0000 H   0  0  0  0  0  0  0  0  0  0  0  0
   -0.7782   -0.1999    0.7817 H   0  0  0  0  0  0  0  0  0  0  0  0
   -0.2343   -0.4796   -1.0031 H   0  0  0  0  0  0  0  0  0  0  0  0
    0.0000   -1.0700    0.0000 H   0  0  0  0  0  0  0  0  0  0  0  0
  1 13  1  0  0  0  0
  1 14  1  0  0  0  0
  1 15  1  0  0  0  0
  2  1  1  0  0  0  0
  2  3  1  0  0  0  0
  2  7  1  0  0  0  0
  2 16  1  1  0  0  0
  3  4  1  0  0  0  0
  3 17  1  0  0  0  0
  3 18  1  0  0  0  0
  4  5  1  0  0  0  0
  5  6  2  0  0  0  0
  5 19  1  0  0  0  0
  7  8  1  0  0  0  0
  8  9  1  0  0  0  0
  8 20  1  0  0  0  0
  8 21  1  0  0  0  0
  9 10  1  0  0  0  0
  9 11  1  0  0  0  0
  9 12  1  0  0  0  0
 10 22  1  0  0  0  0
 10 23  1  0  0  0  0
 10 24  1  0  0  0  0
 11 25  1  0  0  0  0
 11 26  1  0  0  0  0
 11 27  1  0  0  0  0
 12 28  1  0  0  0  0
 12 29  1  0  0  0  0
 12 30  1  0  0  0  0
M  END
$$$$
