
 OpenBabel03202621312D

 17 17  0  0  0  0  0  0  0  0999 V2000
    2.3765    0.3903   -0.0000 N   0  0  0  0  0  0  0  0  0  0  0  0
    1.1799   -0.2569   -0.0000 C   0  0  0  0  0  0  0  0  0  0  0  0
    1.0539   -1.5949   -0.0000 C   0  0  0  0  0  0  0  0  0  0  0  0
   -0.1691   -2.2636   -0.0000 N   0  0  0  0  0  0  0  0  0  0  0  0
   -0.1435   -3.6606   -0.0000 C   0  0  0  0  0  0  0  0  0  0  0  0
    0.8542   -4.3758    0.0000 O   0  0  0  0  0  0  0  0  0  0  0  0
   -1.4089   -1.5064   -0.0000 C   0  0  0  0  0  0  0  0  0  0  0  0
   -1.2267   -0.0357    0.0000 C   0  0  0  0  0  0  0  0  0  0  0  0
   -0.0199    0.5463    0.0000 C   0  0  0  0  0  0  0  0  0  0  0  0
    3.2368   -0.1435   -0.0000 H   0  0  0  0  0  0  0  0  0  0  0  0
    2.4167    1.4002    0.0000 H   0  0  0  0  0  0  0  0  0  0  0  0
    1.9413   -2.2242    0.0000 H   0  0  0  0  0  0  0  0  0  0  0  0
   -1.1443   -4.1205   -0.0000 H   0  0  0  0  0  0  0  0  0  0  0  0
   -2.0262   -2.4123    0.0000 H   0  0  0  0  0  0  0  0  0  0  0  0
   -2.5152   -1.3750   -0.0000 H   0  0  0  0  0  0  0  0  0  0  0  0
   -2.1022    0.6086    0.0000 H   0  0  0  0  0  0  0  0  0  0  0  0
    0.0706    1.6271    0.0000 H   0  0  0  0  0  0  0  0  0  0  0  0
  1  2  1  0  0  0  0
  1 10  1  0  0  0  0
  1 11  1  0  0  0  0
  2  9  1  0  0  0  0
  2  3  2  0  0  0  0
  3  4  1  0  0  0  0
  3 12  1  0  0  0  0
  4  5  1  0  0  0  0
  4  7  1  0  0  0  0
  5  6  2  0  0  0  0
  5 13  1  0  0  0  0
  7  8  1  0  0  0  0
  7 14  1  0  0  0  0
  7 15  1  0  0  0  0
  8  9  2  0  0  0  0
  8 16  1  0  0  0  0
  9 17  1  0  0  0  0
M  END
$$$$
