
 OpenBabel03202621312D

 31 32  0  0  1  0  0  0  0  0999 V2000
   -0.5507   -1.6948    0.0000 C   0  0  0  0  0  0  0  0  0  0  0  0
   -0.7071   -0.7071    0.0000 C   0  0  0  0  0  0  0  0  0  0  0  0
   -1.8647    0.0089    0.2359 N   0  0  0  0  0  0  0  0  0  0  0  0
   -1.4892    1.2692    0.3155 C   0  0  0  0  0  0  0  0  0  0  0  0
   -2.3246    2.4814    0.3839 C   0  0  0  0  0  0  0  0  0  0  0  0
   -3.7039    2.2343   -0.2579 C   0  0  3  0  0  0  0  0  0  0  0  0
   -3.5375    1.6480   -1.5618 O   0  0  0  0  0  0  0  0  0  0  0  0
   -4.5692    1.3224    0.6310 C   0  0  0  0  0  0  0  0  0  0  0  0
   -6.0502    1.5282    0.3569 C   0  0  0  0  0  0  0  0  0  0  0  0
   -6.4554    2.8925    0.5215 O   0  0  0  0  0  0  0  0  0  0  0  0
   -5.6289    3.7957   -0.0809 C   0  0  0  0  0  0  0  0  0  0  0  0
   -4.3793    3.5584   -0.5015 C   0  0  0  0  0  0  0  0  0  0  0  0
   -3.6736    4.5437   -1.1674 O   0  0  0  0  0  0  0  0  0  0  0  0
   -0.1643    1.4804    0.1311 O   0  0  0  0  0  0  0  0  0  0  0  0
    0.3221    0.2386   -0.0920 C   0  0  0  0  0  0  0  0  0  0  0  0
    1.7910    0.1453   -0.2632 C   0  0  0  0  0  0  0  0  0  0  0  0
   -1.5951   -2.0758   -0.1059 H   0  0  0  0  0  0  0  0  0  0  0  0
   -0.2449   -1.8300    1.0674 H   0  0  0  0  0  0  0  0  0  0  0  0
   -0.3834   -2.7516    0.0000 H   0  0  0  0  0  0  0  0  0  0  0  0
   -2.4173    2.8295    1.4191 H   0  0  0  0  0  0  0  0  0  0  0  0
   -1.7753    3.2607   -0.1610 H   0  0  0  0  0  0  0  0  0  0  0  0
   -3.1776    0.7464   -1.4212 H   0  0  0  0  0  0  0  0  0  0  0  0
   -4.3822    1.5483    1.6880 H   0  0  0  0  0  0  0  0  0  0  0  0
   -4.3419    0.2599    0.4725 H   0  0  0  0  0  0  0  0  0  0  0  0
   -6.3208    1.1878   -0.6497 H   0  0  0  0  0  0  0  0  0  0  0  0
   -6.6356    0.9327    1.0679 H   0  0  0  0  0  0  0  0  0  0  0  0
   -6.1101    4.7576   -0.1924 H   0  0  0  0  0  0  0  0  0  0  0  0
   -2.9873    4.0966   -1.6994 H   0  0  0  0  0  0  0  0  0  0  0  0
    2.0656   -0.7497   -0.8297 H   0  0  0  0  0  0  0  0  0  0  0  0
    2.1766    1.0176   -0.7998 H   0  0  0  0  0  0  0  0  0  0  0  0
    2.2819    0.0977    0.7135 H   0  0  0  0  0  0  0  0  0  0  0  0
  1  2  1  0  0  0  0
  1 17  1  0  0  0  0
  1 18  1  0  0  0  0
  1 19  1  0  0  0  0
  2 15  2  0  0  0  0
  2  3  1  0  0  0  0
  3  4  2  0  0  0  0
  4  5  1  0  0  0  0
  4 14  1  0  0  0  0
  5  6  1  0  0  0  0
  5 20  1  0  0  0  0
  5 21  1  0  0  0  0
  6 12  1  0  0  0  0
  6  7  1  0  0  0  0
  6  8  1  0  0  0  0
  7 22  1  0  0  0  0
  8  9  1  0  0  0  0
  8 23  1  0  0  0  0
  8 24  1  0  0  0  0
  9 10  1  0  0  0  0
  9 25  1  0  0  0  0
  9 26  1  0  0  0  0
 10 11  1  0  0  0  0
 11 12  2  0  0  0  0
 11 27  1  0  0  0  0
 12 13  1  0  0  0  0
 13 28  1  0  0  0  0
 14 15  1  0  0  0  0
 15 16  1  0  0  0  0
 16 29  1  0  0  0  0
 16 30  1  0  0  0  0
 16 31  1  0  0  0  0
M  END
$$$$
