
 OpenBabel03202621312D

 19 19  0  0  0  0  0  0  0  0999 V2000
    3.4641    1.0000    0.0000 C   0  0  0  0  0  0  0  0  0  0  0  0
    2.5981    1.5000    0.0000 S   0  0  0  0  0  0  0  0  0  0  0  0
    0.9261    1.3304   -0.0000 C   0  0  0  0  0  0  0  0  0  0  0  0
   -0.1194    2.6173    0.0000 S   0  0  0  0  0  0  0  0  0  0  0  0
    0.7302    0.0103   -0.0000 N   0  0  0  0  0  0  0  0  0  0  0  0
   -0.3423   -0.8391    0.0000 C   0  0  0  0  0  0  0  0  0  0  0  0
    0.0284   -2.1803    0.0000 C   0  0  0  0  0  0  0  0  0  0  0  0
   -0.9508   -3.1375    0.0000 C   0  0  0  0  0  0  0  0  0  0  0  0
   -2.2691   -2.7022    0.0000 C   0  0  0  0  0  0  0  0  0  0  0  0
   -3.6324   -4.0040    0.0000 Br  0  0  0  0  0  0  0  0  0  0  0  0
   -2.6405   -1.3996    0.0000 N   0  0  0  0  0  0  0  0  0  0  0  0
   -1.6645   -0.4835    0.0000 C   0  0  0  0  0  0  0  0  0  0  0  0
    3.2933   -0.0759    0.0001 H   0  0  0  0  0  0  0  0  0  0  0  0
    4.2549    1.7556    0.0001 H   0  0  0  0  0  0  0  0  0  0  0  0
    4.3907    0.4650    0.0000 H   0  0  0  0  0  0  0  0  0  0  0  0
    1.6044   -0.4815   -0.0000 H   0  0  0  0  0  0  0  0  0  0  0  0
    1.0812   -2.4766   -0.0000 H   0  0  0  0  0  0  0  0  0  0  0  0
   -0.6751   -4.1791   -0.0000 H   0  0  0  0  0  0  0  0  0  0  0  0
   -2.0017    0.5483    0.0000 H   0  0  0  0  0  0  0  0  0  0  0  0
  1  2  1  0  0  0  0
  1 13  1  0  0  0  0
  1 14  1  0  0  0  0
  1 15  1  0  0  0  0
  2  3  1  0  0  0  0
  3  4  2  0  0  0  0
  3  5  1  0  0  0  0
  5  6  1  0  0  0  0
  5 16  1  0  0  0  0
  6 12  2  0  0  0  0
  6  7  1  0  0  0  0
  7  8  2  0  0  0  0
  7 17  1  0  0  0  0
  8  9  1  0  0  0  0
  8 18  1  0  0  0  0
  9 10  1  0  0  0  0
  9 11  2  0  0  0  0
 11 12  1  0  0  0  0
 12 19  1  0  0  0  0
M  END
$$$$
