
 OpenBabel03202621392D

 70 71  0  0  1  0  0  0  0  0999 V2000
   -1.3660   -2.3660    0.0000 C   0  0  0  0  0  0  0  0  0  0  0  0
   -1.3660   -1.3660    0.0000 C   0  0  0  0  0  0  0  0  0  0  0  0
   -2.2321   -0.8660    0.0000 C   0  0  1  0  0  0  0  0  0  0  0  0
   -3.2530   -1.1367   -1.3780 C   0  0  0  0  0  0  0  0  0  0  0  0
   -3.0668   -1.1276    1.1926 O   0  0  0  0  0  0  0  0  0  0  0  0
   -4.2874   -0.4177    1.3819 C   0  0  0  0  0  0  0  0  0  0  0  0
   -5.3961   -1.4526    1.6317 C   0  0  0  0  0  0  0  0  0  0  0  0
   -6.0246   -1.9463    0.3056 C   0  0  2  0  0  0  0  0  0  0  0  0
   -7.4867   -1.5064    0.3631 C   0  0  0  0  0  0  0  0  0  0  0  0
   -7.6651   -0.3006    0.5563 O   0  0  0  0  0  0  0  0  0  0  0  0
   -8.6162   -2.4930    0.3497 C   0  0  0  0  0  0  0  0  0  0  0  0
   -8.3765   -3.7591    0.9109 C   0  0  0  0  0  0  0  0  0  0  0  0
   -9.3497   -4.7491    0.8783 C   0  0  0  0  0  0  0  0  0  0  0  0
  -10.5888   -4.4541    0.3460 C   0  0  0  0  0  0  0  0  0  0  0  0
  -10.8516   -3.1744   -0.1475 C   0  0  0  0  0  0  0  0  0  0  0  0
   -9.8957   -2.1342   -0.1865 C   0  0  0  0  0  0  0  0  0  0  0  0
  -10.2173   -1.0064   -0.6954 O   0  5  0  0  0  0  0  0  0  0  0  0
   -5.5682   -3.3159   -0.3185 C   0  0  0  0  0  0  0  0  0  0  0  0
   -6.1917   -3.7851   -1.2816 O   0  0  0  0  0  0  0  0  0  0  0  0
   -3.9641   -3.8660    0.0000 C   0  0  1  0  0  0  0  0  0  0  0  0
   -3.5302   -3.8761    1.4630 O   0  0  0  0  0  0  0  0  0  0  0  0
   -3.9641   -4.8660    0.0000 C   0  0  0  0  0  0  0  0  0  0  0  0
   -5.0035   -5.5291    0.2882 O   0  0  0  0  0  0  0  0  0  0  0  0
   -2.8483   -5.8813   -0.0818 C   0  0  0  0  0  0  0  0  0  0  0  0
   -1.5631   -5.6427   -0.7899 C   0  0  0  0  0  0  0  0  0  0  0  0
   -0.3303   -6.1875   -0.1132 C   0  0  0  0  0  0  0  0  0  0  0  0
   -1.5161   -5.0620   -1.8694 O   0  0  0  0  0  0  0  0  0  0  0  0
   -1.7321    0.0000    0.0000 C   0  0  2  0  0  0  0  0  0  0  0  0
   -1.7411    0.4286   -1.5345 O   0  0  0  0  0  0  0  0  0  0  0  0
   -1.2321    0.8660    0.0000 O   0  0  0  0  0  0  0  0  0  0  0  0
   -1.7970    2.0257    0.6473 C   0  0  0  0  0  0  0  0  0  0  0  0
    0.1765    0.0531    0.4279 C   0  0  0  0  0  0  0  0  0  0  0  0
    0.7446   -0.4930    1.6204 C   0  0  0  0  0  0  0  0  0  0  0  0
    2.0614   -0.9710    1.5783 C   0  0  0  0  0  0  0  0  0  0  0  0
    2.8746   -0.7464    0.4613 C   0  0  0  0  0  0  0  0  0  0  0  0
    2.4096    0.0081   -0.6127 C   0  0  0  0  0  0  0  0  0  0  0  0
    1.0763    0.4012   -0.6474 C   0  0  0  0  0  0  0  0  0  0  0  0
   -0.2672   -2.6548    0.1642 H   0  0  0  0  0  0  0  0  0  0  0  0
   -1.5710   -2.6596   -1.0802 H   0  0  0  0  0  0  0  0  0  0  0  0
   -1.3660   -3.4360    0.0000 H   0  0  0  0  0  0  0  0  0  0  0  0
   -1.0376   -1.4464    1.0856 H   0  0  0  0  0  0  0  0  0  0  0  0
   -0.5995   -1.2758   -0.8745 H   0  0  0  0  0  0  0  0  0  0  0  0
   -2.7120   -1.0958   -2.3413 H   0  0  0  0  0  0  0  0  0  0  0  0
   -3.6749   -2.1185   -1.5248 H   0  0  0  0  0  0  0  0  0  0  0  0
   -4.0584   -0.3984   -1.4140 H   0  0  0  0  0  0  0  0  0  0  0  0
   -4.1577    0.1862    2.2862 H   0  0  0  0  0  0  0  0  0  0  0  0
   -4.5181    0.2772    0.5685 H   0  0  0  0  0  0  0  0  0  0  0  0
   -6.1436   -0.9580    2.2650 H   0  0  0  0  0  0  0  0  0  0  0  0
   -5.0431   -2.2879    2.2364 H   0  0  0  0  0  0  0  0  0  0  0  0
   -5.6811   -1.2717   -0.4876 H   0  0  0  0  0  0  0  0  0  0  0  0
   -7.4208   -4.0140    1.3633 H   0  0  0  0  0  0  0  0  0  0  0  0
   -9.1273   -5.7426    1.2500 H   0  0  0  0  0  0  0  0  0  0  0  0
  -11.3686   -5.2136    0.3006 H   0  0  0  0  0  0  0  0  0  0  0  0
  -11.8479   -2.9629   -0.5410 H   0  0  0  0  0  0  0  0  0  0  0  0
   -3.9641   -2.7960    0.0000 H   0  0  0  0  0  0  0  0  0  0  0  0
   -3.1781   -2.9841    1.6709 H   0  0  0  0  0  0  0  0  0  0  0  0
   -2.6088   -6.1677    0.9532 H   0  0  0  0  0  0  0  0  0  0  0  0
   -3.2537   -6.7838   -0.5626 H   0  0  0  0  0  0  0  0  0  0  0  0
   -0.5335   -7.1910    0.2797 H   0  0  0  0  0  0  0  0  0  0  0  0
   -0.0444   -5.5272    0.7140 H   0  0  0  0  0  0  0  0  0  0  0  0
    0.4961   -6.2619   -0.8266 H   0  0  0  0  0  0  0  0  0  0  0  0
   -2.4283    1.1120   -1.5777 H   0  0  0  0  0  0  0  0  0  0  0  0
   -0.9742    2.6592    0.9948 H   0  0  0  0  0  0  0  0  0  0  0  0
   -2.4225    1.7626    1.5065 H   0  0  0  0  0  0  0  0  0  0  0  0
   -2.3809    2.6079   -0.0744 H   0  0  0  0  0  0  0  0  0  0  0  0
    0.1329   -0.7339    2.4866 H   0  0  0  0  0  0  0  0  0  0  0  0
    2.4375   -1.5883    2.3910 H   0  0  0  0  0  0  0  0  0  0  0  0
    3.8732   -1.1737    0.4200 H   0  0  0  0  0  0  0  0  0  0  0  0
    3.0541    0.2206   -1.4605 H   0  0  0  0  0  0  0  0  0  0  0  0
    0.6855    0.8940   -1.5348 H   0  0  0  0  0  0  0  0  0  0  0  0
  1  2  1  0  0  0  0
  1 38  1  0  0  0  0
  1 39  1  0  0  0  0
  1 40  1  0  0  0  0
  2  3  1  0  0  0  0
  2 41  1  0  0  0  0
  2 42  1  0  0  0  0
  3  4  1  0  0  0  0
  3  5  1  1  0  0  0
  3 28  1  0  0  0  0
  4 43  1  0  0  0  0
  4 44  1  0  0  0  0
  4 45  1  0  0  0  0
  5  6  1  0  0  0  0
  6  7  1  0  0  0  0
  6 46  1  0  0  0  0
  6 47  1  0  0  0  0
  7 48  1  0  0  0  0
  7 49  1  0  0  0  0
  8  7  1  0  0  0  0
  8  9  1  0  0  0  0
  8 18  1  0  0  0  0
  8 50  1  6  0  0  0
  9 10  2  0  0  0  0
  9 11  1  0  0  0  0
 11 16  2  0  0  0  0
 11 12  1  0  0  0  0
 12 13  2  0  0  0  0
 12 51  1  0  0  0  0
 13 14  1  0  0  0  0
 13 52  1  0  0  0  0
 14 15  2  0  0  0  0
 14 53  1  0  0  0  0
 15 16  1  0  0  0  0
 15 54  1  0  0  0  0
 16 17  1  0  0  0  0
 18 19  2  0  0  0  0
 18 20  1  0  0  0  0
 20 21  1  0  0  0  0
 20 22  1  0  0  0  0
 20 55  1  6  0  0  0
 21 56  1  0  0  0  0
 22 23  2  0  0  0  0
 22 24  1  0  0  0  0
 24 25  1  0  0  0  0
 24 57  1  0  0  0  0
 24 58  1  0  0  0  0
 25 26  1  0  0  0  0
 25 27  2  0  0  0  0
 26 59  1  0  0  0  0
 26 60  1  0  0  0  0
 26 61  1  0  0  0  0
 28 29  1  1  0  0  0
 28 30  1  0  0  0  0
 28 32  1  0  0  0  0
 29 62  1  0  0  0  0
 30 31  1  0  0  0  0
 31 63  1  0  0  0  0
 31 64  1  0  0  0  0
 31 65  1  0  0  0  0
 32 37  2  0  0  0  0
 32 33  1  0  0  0  0
 33 34  2  0  0  0  0
 33 66  1  0  0  0  0
 34 35  1  0  0  0  0
 34 67  1  0  0  0  0
 35 36  2  0  0  0  0
 35 68  1  0  0  0  0
 36 37  1  0  0  0  0
 36 69  1  0  0  0  0
 37 70  1  0  0  0  0
M  CHG  1  17  -1
M  END
$$$$
