
 OpenBabel03202621362D

 40 41  0  0  0  0  0  0  0  0999 V2000
    0.4716   -4.7956   -0.0401 C   0  0  0  0  0  0  0  0  0  0  0  0
    1.8696   -4.2127    0.0120 C   0  0  0  0  0  0  0  0  0  0  0  0
    1.8653   -2.8184    0.3789 O   0  0  0  0  0  0  0  0  0  0  0  0
    2.2159   -1.9405   -0.6227 C   0  0  0  0  0  0  0  0  0  0  0  0
    2.3129   -2.2683   -1.8040 O   0  0  0  0  0  0  0  0  0  0  0  0
    2.5981   -0.5000    0.0000 C   0  0  0  0  0  0  0  0  0  0  0  0
    3.5981   -0.5000    0.0000 C   0  0  0  0  0  0  0  0  0  0  0  0
    3.0981    0.3660    0.0000 C   0  0  0  0  0  0  0  0  0  0  0  0
    1.3859   -0.0339   -0.6552 O   0  0  0  0  0  0  0  0  0  0  0  0
    0.3603    0.3229    0.1776 C   0  0  0  0  0  0  0  0  0  0  0  0
    0.1913   -0.1829    1.4684 C   0  0  0  0  0  0  0  0  0  0  0  0
   -1.0797   -0.1551    2.0065 C   0  0  0  0  0  0  0  0  0  0  0  0
   -2.0904    0.1338    1.0845 C   0  0  0  0  0  0  0  0  0  0  0  0
   -2.6237   -1.0655    0.5046 N   0  0  0  0  0  0  0  0  0  0  0  0
   -2.6023   -2.3211    1.0517 C   0  0  0  0  0  0  0  0  0  0  0  0
   -2.8147   -3.2024    0.0000 C   0  0  0  0  0  0  0  0  0  0  0  0
   -3.2215   -4.1160    0.0000 C   0  0  0  0  0  0  0  0  0  0  0  0
   -2.8680   -2.4441   -1.1452 N   0  0  0  0  0  0  0  0  0  0  0  0
   -2.8835   -1.1635   -0.8193 N   0  0  0  0  0  0  0  0  0  0  0  0
   -1.8721    1.1206    0.1230 C   0  0  0  0  0  0  0  0  0  0  0  0
   -0.6070    1.1215   -0.4233 C   0  0  0  0  0  0  0  0  0  0  0  0
   -0.1195   -4.3299   -0.8334 H   0  0  0  0  0  0  0  0  0  0  0  0
    0.5158   -5.8761   -0.2355 H   0  0  0  0  0  0  0  0  0  0  0  0
   -0.0533   -4.6372    0.9062 H   0  0  0  0  0  0  0  0  0  0  0  0
    2.4419   -4.7317    0.7878 H   0  0  0  0  0  0  0  0  0  0  0  0
    2.3871   -4.3991   -0.9360 H   0  0  0  0  0  0  0  0  0  0  0  0
    3.8209   -1.2925    0.8305 H   0  0  0  0  0  0  0  0  0  0  0  0
    3.9604   -0.9836   -1.0308 H   0  0  0  0  0  0  0  0  0  0  0  0
    4.6681   -0.5000    0.0000 H   0  0  0  0  0  0  0  0  0  0  0  0
    2.5852    0.9628    0.8660 H   0  0  0  0  0  0  0  0  0  0  0  0
    2.8923    0.9471   -1.0436 H   0  0  0  0  0  0  0  0  0  0  0  0
    3.6331    1.2926    0.0000 H   0  0  0  0  0  0  0  0  0  0  0  0
    0.9660   -0.7403    1.9851 H   0  0  0  0  0  0  0  0  0  0  0  0
   -1.2674   -0.7411    2.9034 H   0  0  0  0  0  0  0  0  0  0  0  0
   -2.5891   -2.4758    2.1213 H   0  0  0  0  0  0  0  0  0  0  0  0
   -4.1669   -3.9275    0.5659 H   0  0  0  0  0  0  0  0  0  0  0  0
   -2.4767   -4.6582    0.6268 H   0  0  0  0  0  0  0  0  0  0  0  0
   -3.6567   -5.0935    0.0000 H   0  0  0  0  0  0  0  0  0  0  0  0
   -2.6935    1.5073   -0.4894 H   0  0  0  0  0  0  0  0  0  0  0  0
   -0.4281    1.5711   -1.3957 H   0  0  0  0  0  0  0  0  0  0  0  0
  1  2  1  0  0  0  0
  1 22  1  0  0  0  0
  1 23  1  0  0  0  0
  1 24  1  0  0  0  0
  2  3  1  0  0  0  0
  2 25  1  0  0  0  0
  2 26  1  0  0  0  0
  3  4  1  0  0  0  0
  4  5  2  0  0  0  0
  4  6  1  0  0  0  0
  6  7  1  0  0  0  0
  6  8  1  0  0  0  0
  6  9  1  0  0  0  0
  7 27  1  0  0  0  0
  7 28  1  0  0  0  0
  7 29  1  0  0  0  0
  8 30  1  0  0  0  0
  8 31  1  0  0  0  0
  8 32  1  0  0  0  0
  9 10  1  0  0  0  0
 10 21  2  0  0  0  0
 10 11  1  0  0  0  0
 11 12  2  0  0  0  0
 11 33  1  0  0  0  0
 12 13  1  0  0  0  0
 12 34  1  0  0  0  0
 13 14  1  0  0  0  0
 13 20  2  0  0  0  0
 14 19  1  0  0  0  0
 14 15  1  0  0  0  0
 15 16  2  0  0  0  0
 15 35  1  0  0  0  0
 16 17  1  0  0  0  0
 16 18  1  0  0  0  0
 17 36  1  0  0  0  0
 17 37  1  0  0  0  0
 17 38  1  0  0  0  0
 18 19  2  0  0  0  0
 20 21  1  0  0  0  0
 20 39  1  0  0  0  0
 21 40  1  0  0  0  0
M  END
$$$$
