
 OpenBabel03202621352D

 19 19  0  0  0  0  0  0  0  0999 V2000
    3.5487   -0.3526   -0.3157 N   0  0  0  0  0  0  0  0  0  0  0  0
    2.3285    0.3892   -0.0187 C   0  0  0  0  0  0  0  0  0  0  0  0
    1.0697   -0.4354   -0.0228 C   0  0  0  0  0  0  0  0  0  0  0  0
    1.0517   -1.8265   -0.0239 C   0  0  0  0  0  0  0  0  0  0  0  0
   -0.0749   -2.5804    0.0140 N   0  0  0  0  0  0  0  0  0  0  0  0
   -1.2580   -1.9213    0.0384 C   0  0  0  0  0  0  0  0  0  0  0  0
   -1.3534   -0.5412    0.0330 C   0  0  0  0  0  0  0  0  0  0  0  0
   -2.5447    0.2112    0.0521 O   0  0  0  0  0  0  0  0  0  0  0  0
   -3.8219   -0.3342   -0.0087 C   0  0  0  0  0  0  0  0  0  0  0  0
   -4.1400   -1.5094   -0.0665 O   0  0  0  0  0  0  0  0  0  0  0  0
   -0.1749    0.2072    0.0121 C   0  0  0  0  0  0  0  0  0  0  0  0
    3.7628   -0.9767    0.4611 H   0  0  0  0  0  0  0  0  0  0  0  0
    4.3294    0.3014   -0.3616 H   0  0  0  0  0  0  0  0  0  0  0  0
    2.4352    0.8676    0.9619 H   0  0  0  0  0  0  0  0  0  0  0  0
    2.2278    1.1827   -0.7686 H   0  0  0  0  0  0  0  0  0  0  0  0
    1.9687   -2.4090   -0.0582 H   0  0  0  0  0  0  0  0  0  0  0  0
   -2.1207   -2.5771    0.0645 H   0  0  0  0  0  0  0  0  0  0  0  0
   -4.5350    0.5047    0.0024 H   0  0  0  0  0  0  0  0  0  0  0  0
   -0.2297    1.2929    0.0173 H   0  0  0  0  0  0  0  0  0  0  0  0
  1  2  1  0  0  0  0
  1 12  1  0  0  0  0
  1 13  1  0  0  0  0
  2  3  1  0  0  0  0
  2 14  1  0  0  0  0
  2 15  1  0  0  0  0
  3 11  2  0  0  0  0
  3  4  1  0  0  0  0
  4  5  2  0  0  0  0
  4 16  1  0  0  0  0
  5  6  1  0  0  0  0
  6  7  2  0  0  0  0
  6 17  1  0  0  0  0
  7  8  1  0  0  0  0
  7 11  1  0  0  0  0
  8  9  1  0  0  0  0
  9 10  2  0  0  0  0
  9 18  1  0  0  0  0
 11 19  1  0  0  0  0
M  END
$$$$
