
 OpenBabel03202621362D

 18 17  0  0  1  0  0  0  0  0999 V2000
    3.4641    2.0000    0.0000 C   0  0  0  0  0  0  0  0  0  0  0  0
    2.5981    2.5000    0.0000 C   0  0  0  0  0  0  0  0  0  0  0  0
    1.7321    3.0000    0.0000 C   0  0  0  0  0  0  0  0  0  0  0  0
    0.3517    2.5817    0.6347 C   0  0  2  0  0  0  0  0  0  0  0  0
   -0.9284    3.1778   -0.0900 C   0  0  0  0  0  0  0  0  0  0  0  0
   -2.1142    2.3075   -0.1772 N   0  0  0  0  0  0  0  0  0  0  0  0
    0.2537    1.2037    1.0142 O   0  0  0  0  0  0  0  0  0  0  0  0
    0.0912    0.2713    0.0652 C   0  0  0  0  0  0  0  0  0  0  0  0
    0.2677   -0.9289    0.2787 O   0  0  0  0  0  0  0  0  0  0  0  0
    4.3818    1.4555    0.0065 H   0  0  0  0  0  0  0  0  0  0  0  0
    1.4479    3.3754   -0.9969 H   0  0  0  0  0  0  0  0  0  0  0  0
    1.8533    3.9853    0.4913 H   0  0  0  0  0  0  0  0  0  0  0  0
    0.3197    3.0886    1.6102 H   0  0  0  0  0  0  0  0  0  0  0  0
   -1.2418    4.0694    0.4626 H   0  0  0  0  0  0  0  0  0  0  0  0
   -0.7010    3.5364   -1.1000 H   0  0  0  0  0  0  0  0  0  0  0  0
   -2.9484    2.8614   -0.3436 H   0  0  0  0  0  0  0  0  0  0  0  0
   -2.2614    1.8333    0.7192 H   0  0  0  0  0  0  0  0  0  0  0  0
   -0.2439    0.6644   -0.9022 H   0  0  0  0  0  0  0  0  0  0  0  0
  1  2  3  0  0  0  0
  1 10  1  0  0  0  0
  2  3  1  0  0  0  0
  3 11  1  0  0  0  0
  3 12  1  0  0  0  0
  4  3  1  0  0  0  0
  4  5  1  0  0  0  0
  4  7  1  0  0  0  0
  4 13  1  6  0  0  0
  5  6  1  0  0  0  0
  5 14  1  0  0  0  0
  5 15  1  0  0  0  0
  6 16  1  0  0  0  0
  6 17  1  0  0  0  0
  7  8  1  0  0  0  0
  8  9  2  0  0  0  0
  8 18  1  0  0  0  0
M  END
$$$$
