
 OpenBabel03202621372D

 28 28  0  0  1  0  0  0  0  0999 V2000
    2.5981   -1.5000    0.0000 C   0  0  0  0  0  0  0  0  0  0  0  0
    2.5981   -0.5000    0.0000 C   0  0  0  0  0  0  0  0  0  0  0  0
    1.1655    0.2237    0.1401 C   0  0  2  0  0  0  0  0  0  0  0  0
    1.2347    1.3517   -0.7569 O   0  0  0  0  0  0  0  0  0  0  0  0
    0.5879    2.5407   -0.3268 C   0  0  0  0  0  0  0  0  0  0  0  0
   -0.1433   -0.5760   -0.0552 C   0  0  0  0  0  0  0  0  0  0  0  0
   -0.1943   -1.9222   -0.4432 C   0  0  0  0  0  0  0  0  0  0  0  0
   -1.3627   -2.6776   -0.3391 C   0  0  0  0  0  0  0  0  0  0  0  0
   -2.5477   -2.0809    0.0600 C   0  0  0  0  0  0  0  0  0  0  0  0
   -2.5891   -0.7103    0.3114 C   0  0  0  0  0  0  0  0  0  0  0  0
   -4.0765    0.1661    0.7563 S   0  0  0  0  0  0  0  0  0  0  0  0
   -5.3836   -0.7699    0.0441 C   0  0  0  0  0  0  0  0  0  0  0  0
   -6.5387   -0.3785    0.0922 O   0  0  0  0  0  0  0  0  0  0  0  0
   -1.3793    0.0150    0.2872 C   0  0  0  0  0  0  0  0  0  0  0  0
    2.4048   -1.6784    1.0870 H   0  0  0  0  0  0  0  0  0  0  0  0
    3.6882   -1.6854   -0.1736 H   0  0  0  0  0  0  0  0  0  0  0  0
    2.5981   -2.5700    0.0000 H   0  0  0  0  0  0  0  0  0  0  0  0
    2.9680   -0.0857   -0.9581 H   0  0  0  0  0  0  0  0  0  0  0  0
    3.2488    0.0599    0.7014 H   0  0  0  0  0  0  0  0  0  0  0  0
    1.1395    0.5882    1.1795 H   0  0  0  0  0  0  0  0  0  0  0  0
    1.1123    3.3931   -0.7632 H   0  0  0  0  0  0  0  0  0  0  0  0
   -0.4368    2.5594   -0.7122 H   0  0  0  0  0  0  0  0  0  0  0  0
    0.5875    2.6556    0.7600 H   0  0  0  0  0  0  0  0  0  0  0  0
    0.6733   -2.4612   -0.8025 H   0  0  0  0  0  0  0  0  0  0  0  0
   -1.3320   -3.7434   -0.5501 H   0  0  0  0  0  0  0  0  0  0  0  0
   -3.4164   -2.7183    0.1735 H   0  0  0  0  0  0  0  0  0  0  0  0
   -5.1452   -1.7240   -0.4430 H   0  0  0  0  0  0  0  0  0  0  0  0
   -1.4083    1.0623    0.5767 H   0  0  0  0  0  0  0  0  0  0  0  0
  1  2  1  0  0  0  0
  1 15  1  0  0  0  0
  1 16  1  0  0  0  0
  1 17  1  0  0  0  0
  2 18  1  0  0  0  0
  2 19  1  0  0  0  0
  3  2  1  0  0  0  0
  3  4  1  0  0  0  0
  3  6  1  0  0  0  0
  3 20  1  6  0  0  0
  4  5  1  0  0  0  0
  5 21  1  0  0  0  0
  5 22  1  0  0  0  0
  5 23  1  0  0  0  0
  6 14  2  0  0  0  0
  6  7  1  0  0  0  0
  7  8  2  0  0  0  0
  7 24  1  0  0  0  0
  8  9  1  0  0  0  0
  8 25  1  0  0  0  0
  9 10  2  0  0  0  0
  9 26  1  0  0  0  0
 10 11  1  0  0  0  0
 10 14  1  0  0  0  0
 11 12  1  0  0  0  0
 12 13  2  0  0  0  0
 12 27  1  0  0  0  0
 14 28  1  0  0  0  0
M  END
$$$$
