
 OpenBabel03202621312D

 29 30  0  0  1  0  0  0  0  0999 V2000
   -1.9319   -0.4824    0.0000 C   0  0  0  0  0  0  0  0  0  0  0  0
   -1.6730   -1.4483    0.0000 C   0  0  1  0  0  0  0  0  0  0  0  0
   -2.2193   -2.3530    1.1588 C   0  0  0  0  0  0  0  0  0  0  0  0
   -1.2582   -3.8326    1.6449 S   0  0  0  0  0  0  0  0  0  0  0  0
   -0.9054   -4.5337    0.0748 C   0  0  0  0  0  0  0  0  0  0  0  0
   -1.1892   -5.6978   -0.1789 O   0  0  0  0  0  0  0  0  0  0  0  0
   -0.2047   -1.5656    0.0074 O   0  0  0  0  0  0  0  0  0  0  0  0
    0.5970   -0.7085    0.8715 C   0  0  2  0  0  0  0  0  0  0  0  0
    0.8056    0.7912    0.4171 C   0  0  0  0  0  0  0  0  0  0  0  0
    2.2619    0.4642    0.3101 C   0  0  0  0  0  0  0  0  0  0  0  0
    3.4942    0.9794   -0.0218 C   0  0  0  0  0  0  0  0  0  0  0  0
    4.5820    0.1076    0.0219 C   0  0  0  0  0  0  0  0  0  0  0  0
    4.4062   -1.2408    0.3875 C   0  0  0  0  0  0  0  0  0  0  0  0
    3.1392   -1.7338    0.7218 C   0  0  0  0  0  0  0  0  0  0  0  0
    2.0873   -0.8476    0.6724 C   0  0  0  0  0  0  0  0  0  0  0  0
   -1.5505   -0.1706   -1.0083 H   0  0  0  0  0  0  0  0  0  0  0  0
   -3.0413   -0.5814   -0.1058 H   0  0  0  0  0  0  0  0  0  0  0  0
   -2.2089    0.5511    0.0000 H   0  0  0  0  0  0  0  0  0  0  0  0
   -1.9239   -2.0414   -0.8997 H   0  0  0  0  0  0  0  0  0  0  0  0
   -2.3307   -1.7626    2.0761 H   0  0  0  0  0  0  0  0  0  0  0  0
   -3.2289   -2.6942    0.8924 H   0  0  0  0  0  0  0  0  0  0  0  0
   -0.3957   -3.8996   -0.6652 H   0  0  0  0  0  0  0  0  0  0  0  0
    0.2754   -0.8014    1.9173 H   0  0  0  0  0  0  0  0  0  0  0  0
    0.5201    1.5304    1.1732 H   0  0  0  0  0  0  0  0  0  0  0  0
    0.3284    1.0713   -0.5279 H   0  0  0  0  0  0  0  0  0  0  0  0
    3.6116    2.0150   -0.3164 H   0  0  0  0  0  0  0  0  0  0  0  0
    5.5735    0.4693   -0.2403 H   0  0  0  0  0  0  0  0  0  0  0  0
    5.2654   -1.9074    0.4036 H   0  0  0  0  0  0  0  0  0  0  0  0
    2.9921   -2.7692    0.9964 H   0  0  0  0  0  0  0  0  0  0  0  0
  1 16  1  0  0  0  0
  1 17  1  0  0  0  0
  1 18  1  0  0  0  0
  2  1  1  0  0  0  0
  2  3  1  0  0  0  0
  2  7  1  0  0  0  0
  2 19  1  1  0  0  0
  3  4  1  0  0  0  0
  3 20  1  0  0  0  0
  3 21  1  0  0  0  0
  4  5  1  0  0  0  0
  5  6  2  0  0  0  0
  5 22  1  0  0  0  0
  8  7  1  0  0  0  0
  8  9  1  0  0  0  0
  8 15  1  0  0  0  0
  8 23  1  1  0  0  0
  9 10  1  0  0  0  0
  9 24  1  0  0  0  0
  9 25  1  0  0  0  0
 10 15  2  0  0  0  0
 10 11  1  0  0  0  0
 11 12  2  0  0  0  0
 11 26  1  0  0  0  0
 12 13  1  0  0  0  0
 12 27  1  0  0  0  0
 13 14  2  0  0  0  0
 13 28  1  0  0  0  0
 14 15  1  0  0  0  0
 14 29  1  0  0  0  0
M  END
$$$$
