
 OpenBabel03202621362D

 34 34  0  0  1  0  0  0  0  0999 V2000
    4.2569    1.3420    0.0000 C   0  0  0  0  0  0  0  0  0  0  0  0
    3.2623    1.4465    0.0000 O   0  0  0  0  0  0  0  0  0  0  0  0
    2.6429    0.3766    0.4813 C   0  0  0  0  0  0  0  0  0  0  0  0
    3.0341   -0.4456    1.2833 O   0  0  0  0  0  0  0  0  0  0  0  0
    1.4789    0.4836   -0.4395 C   0  0  3  0  0  0  0  0  0  0  0  0
    0.9129   -0.9633   -0.3868 C   0  0  0  0  0  0  0  0  0  0  0  0
    1.9287   -2.0876   -0.7459 C   0  0  0  0  0  0  0  0  0  0  0  0
    1.1858   -3.2966   -1.1458 N   0  0  0  0  0  0  0  0  0  0  0  0
    1.2607   -4.2672   -0.3735 N   0  3  0  0  0  0  0  0  0  0  0  0
    1.3275   -5.1725    0.3243 N   0  5  0  0  0  0  0  0  0  0  0  0
    1.1658    2.1649   -0.2143 C   0  0  0  0  0  0  0  0  0  0  0  0
   -0.0752    2.9913   -0.0555 C   0  0  0  0  0  0  0  0  0  0  0  0
   -1.0199    2.0121    0.3021 N   0  0  0  0  0  0  0  0  0  0  0  0
   -1.3982    1.1583   -0.7021 C   0  0  0  0  0  0  0  0  0  0  0  0
   -1.6180    0.0000    0.0000 C   0  0  0  0  0  0  0  0  0  0  0  0
   -2.5691   -0.3090    0.0000 C   0  0  0  0  0  0  0  0  0  0  0  0
   -0.9817    0.1165    1.2392 N   0  0  0  0  0  0  0  0  0  0  0  0
   -0.8134    1.3975    1.4804 N   0  0  0  0  0  0  0  0  0  0  0  0
    4.4255    1.1376   -1.0804 H   0  0  0  0  0  0  0  0  0  0  0  0
    4.5444    2.3976    0.1788 H   0  0  0  0  0  0  0  0  0  0  0  0
    5.3210    1.2302    0.0000 H   0  0  0  0  0  0  0  0  0  0  0  0
    1.8485    0.5028   -1.4780 H   0  0  0  0  0  0  0  0  0  0  0  0
    0.1126   -1.0702   -1.1198 H   0  0  0  0  0  0  0  0  0  0  0  0
    0.5793   -1.2473    0.6164 H   0  0  0  0  0  0  0  0  0  0  0  0
    2.5687   -1.7731   -1.5760 H   0  0  0  0  0  0  0  0  0  0  0  0
    2.5863   -2.3286    0.0980 H   0  0  0  0  0  0  0  0  0  0  0  0
    1.7237    2.6777   -1.0135 H   0  0  0  0  0  0  0  0  0  0  0  0
    1.6563    2.4533    0.7362 H   0  0  0  0  0  0  0  0  0  0  0  0
   -0.3844    3.5088   -0.9669 H   0  0  0  0  0  0  0  0  0  0  0  0
    0.0012    3.7324    0.7520 H   0  0  0  0  0  0  0  0  0  0  0  0
   -1.7640    1.5544   -1.6409 H   0  0  0  0  0  0  0  0  0  0  0  0
   -3.0047    0.1317    0.9373 H   0  0  0  0  0  0  0  0  0  0  0  0
   -2.3948   -1.4035    0.1277 H   0  0  0  0  0  0  0  0  0  0  0  0
   -3.5867   -0.6396    0.0000 H   0  0  0  0  0  0  0  0  0  0  0  0
  1  2  1  0  0  0  0
  1 19  1  0  0  0  0
  1 20  1  0  0  0  0
  1 21  1  0  0  0  0
  2  3  1  0  0  0  0
  3  4  2  0  0  0  0
  3  5  1  0  0  0  0
  5  6  1  0  0  0  0
  5 11  1  0  0  0  0
  5 22  1  0  0  0  0
  6  7  1  0  0  0  0
  6 23  1  0  0  0  0
  6 24  1  0  0  0  0
  7  8  1  0  0  0  0
  7 25  1  0  0  0  0
  7 26  1  0  0  0  0
  8  9  2  0  0  0  0
  9 10  2  0  0  0  0
 11 12  1  0  0  0  0
 11 27  1  0  0  0  0
 11 28  1  0  0  0  0
 12 13  1  0  0  0  0
 12 29  1  0  0  0  0
 12 30  1  0  0  0  0
 13 18  1  0  0  0  0
 13 14  1  0  0  0  0
 14 15  2  0  0  0  0
 14 31  1  0  0  0  0
 15 16  1  0  0  0  0
 15 17  1  0  0  0  0
 16 32  1  0  0  0  0
 16 33  1  0  0  0  0
 16 34  1  0  0  0  0
 17 18  2  0  0  0  0
M  CHG  2   9   1  10  -1
M  END
$$$$
