
 OpenBabel03202621392D

 36 37  0  0  1  0  0  0  0  0999 V2000
    2.1679   -4.5858   -0.6267 C   0  0  0  0  0  0  0  0  0  0  0  0
    1.0843   -3.6549   -0.5658 O   0  0  0  0  0  0  0  0  0  0  0  0
    0.1542   -3.8429    0.4090 C   0  0  0  0  0  0  0  0  0  0  0  0
    0.1849   -4.7943    1.1894 O   0  0  0  0  0  0  0  0  0  0  0  0
   -0.8714   -2.7118    0.5137 C   0  0  2  0  0  0  0  0  0  0  0  0
   -2.0890   -3.3531    0.1173 O   0  0  0  0  0  0  0  0  0  0  0  0
   -3.3233   -2.7690    0.3339 C   0  0  0  0  0  0  0  0  0  0  0  0
   -3.5607   -1.7578    1.1891 C   0  0  0  0  0  0  0  0  0  0  0  0
   -4.7555   -1.1043    1.3785 O   0  0  0  0  0  0  0  0  0  0  0  0
   -5.7924   -1.4125    0.4359 C   0  0  0  0  0  0  0  0  0  0  0  0
   -5.6050   -2.6537   -0.3712 C   0  0  0  0  0  0  0  0  0  0  0  0
   -4.4374   -3.3167   -0.4647 C   0  0  0  0  0  0  0  0  0  0  0  0
   -4.1586   -4.3339   -1.1479 O   0  5  0  0  0  0  0  0  0  0  0  0
   -0.6306   -1.4446   -0.3467 C   0  0  1  0  0  0  0  0  0  0  0  0
   -0.6380   -1.7479   -1.7453 O   0  0  0  0  0  0  0  0  0  0  0  0
    0.5406   -0.5178   -0.0452 C   0  0  0  0  0  0  0  0  0  0  0  0
    1.7568   -0.9159    0.5292 C   0  0  0  0  0  0  0  0  0  0  0  0
    2.8270   -0.0194    0.6602 C   0  0  0  0  0  0  0  0  0  0  0  0
    2.6930    1.3046    0.2535 C   0  0  0  0  0  0  0  0  0  0  0  0
    1.4800    1.7362   -0.2693 C   0  0  0  0  0  0  0  0  0  0  0  0
    0.4273    0.8328   -0.4160 C   0  0  0  0  0  0  0  0  0  0  0  0
   -0.7265    1.2983   -0.9180 F   0  0  0  0  0  0  0  0  0  0  0  0
    2.0312   -5.4727   -0.0043 H   0  0  0  0  0  0  0  0  0  0  0  0
    3.0816   -4.0721   -0.3174 H   0  0  0  0  0  0  0  0  0  0  0  0
    2.2870   -4.9029   -1.6679 H   0  0  0  0  0  0  0  0  0  0  0  0
   -0.8972   -2.4431    1.5770 H   0  0  0  0  0  0  0  0  0  0  0  0
   -2.8253   -1.3252    1.8471 H   0  0  0  0  0  0  0  0  0  0  0  0
   -5.8868   -0.5603   -0.2450 H   0  0  0  0  0  0  0  0  0  0  0  0
   -6.7285   -1.4807    1.0008 H   0  0  0  0  0  0  0  0  0  0  0  0
   -6.4541   -3.0172   -0.9347 H   0  0  0  0  0  0  0  0  0  0  0  0
   -1.5161   -0.8136   -0.2019 H   0  0  0  0  0  0  0  0  0  0  0  0
   -1.4604   -2.2704   -1.8849 H   0  0  0  0  0  0  0  0  0  0  0  0
    1.9228   -1.9309    0.8698 H   0  0  0  0  0  0  0  0  0  0  0  0
    3.7726   -0.3675    1.0693 H   0  0  0  0  0  0  0  0  0  0  0  0
    3.5275    1.9939    0.3430 H   0  0  0  0  0  0  0  0  0  0  0  0
    1.3421    2.7666   -0.5798 H   0  0  0  0  0  0  0  0  0  0  0  0
  1  2  1  0  0  0  0
  1 23  1  0  0  0  0
  1 24  1  0  0  0  0
  1 25  1  0  0  0  0
  2  3  1  0  0  0  0
  3  4  2  0  0  0  0
  5  3  1  0  0  0  0
  5  6  1  0  0  0  0
  5 14  1  0  0  0  0
  5 26  1  1  0  0  0
  6  7  1  0  0  0  0
  7 12  1  0  0  0  0
  7  8  2  0  0  0  0
  8  9  1  0  0  0  0
  8 27  1  0  0  0  0
  9 10  1  0  0  0  0
 10 11  1  0  0  0  0
 10 28  1  0  0  0  0
 10 29  1  0  0  0  0
 11 12  2  0  0  0  0
 11 30  1  0  0  0  0
 12 13  1  0  0  0  0
 14 15  1  0  0  0  0
 14 16  1  0  0  0  0
 14 31  1  6  0  0  0
 15 32  1  0  0  0  0
 16 21  2  0  0  0  0
 16 17  1  0  0  0  0
 17 18  2  0  0  0  0
 17 33  1  0  0  0  0
 18 19  1  0  0  0  0
 18 34  1  0  0  0  0
 19 20  2  0  0  0  0
 19 35  1  0  0  0  0
 20 21  1  0  0  0  0
 20 36  1  0  0  0  0
 21 22  1  0  0  0  0
M  CHG  1  13  -1
M  END
$$$$
