
 OpenBabel03202621322D

 19 19  0  0  0  0  0  0  0  0999 V2000
   -0.8660    2.5000    0.0000 C   0  0  0  0  0  0  0  0  0  0  0  0
   -0.8660    1.5000    0.0000 S   0  0  0  0  0  0  0  0  0  0  0  0
    0.7933    0.8561    0.0000 C   0  0  0  0  0  0  0  0  0  0  0  0
    2.0124    1.5333    0.0000 C   0  0  0  0  0  0  0  0  0  0  0  0
    3.1887    0.7874    0.0000 C   0  0  0  0  0  0  0  0  0  0  0  0
    3.1651   -0.6282    0.0000 C   0  0  0  0  0  0  0  0  0  0  0  0
    4.7227   -1.3481   -0.0000 Cl  0  0  0  0  0  0  0  0  0  0  0  0
    1.9490   -1.3267   -0.0000 C   0  0  0  0  0  0  0  0  0  0  0  0
    1.4077   -3.0130   -0.0000 S   0  0  0  0  0  0  0  0  0  0  0  0
    2.6497   -4.1985    0.0000 C   0  0  0  0  0  0  0  0  0  0  0  0
    3.8522   -4.0177   -0.0000 O   0  0  0  0  0  0  0  0  0  0  0  0
    0.7884   -0.5339    0.0000 C   0  0  0  0  0  0  0  0  0  0  0  0
    0.1247    2.9468   -0.0000 H   0  0  0  0  0  0  0  0  0  0  0  0
   -1.9188    2.8015   -0.0000 H   0  0  0  0  0  0  0  0  0  0  0  0
   -0.8660    3.5700    0.0000 H   0  0  0  0  0  0  0  0  0  0  0  0
    2.0849    2.6123    0.0000 H   0  0  0  0  0  0  0  0  0  0  0  0
    4.1361    1.3259    0.0000 H   0  0  0  0  0  0  0  0  0  0  0  0
    2.2484   -5.2233    0.0000 H   0  0  0  0  0  0  0  0  0  0  0  0
   -0.1912   -1.0203    0.0000 H   0  0  0  0  0  0  0  0  0  0  0  0
  1  2  1  0  0  0  0
  1 13  1  0  0  0  0
  1 14  1  0  0  0  0
  1 15  1  0  0  0  0
  2  3  1  0  0  0  0
  3 12  2  0  0  0  0
  3  4  1  0  0  0  0
  4  5  2  0  0  0  0
  4 16  1  0  0  0  0
  5  6  1  0  0  0  0
  5 17  1  0  0  0  0
  6  7  1  0  0  0  0
  6  8  2  0  0  0  0
  8  9  1  0  0  0  0
  8 12  1  0  0  0  0
  9 10  1  0  0  0  0
 10 11  2  0  0  0  0
 10 18  1  0  0  0  0
 12 19  1  0  0  0  0
M  END
$$$$
