
 OpenBabel03202621332D

 27 28  0  0  0  0  0  0  0  0999 V2000
    4.3301   -1.5000    0.0000 C   0  0  0  0  0  0  0  0  0  0  0  0
    3.4641   -2.0000    0.0000 C   0  0  0  0  0  0  0  0  0  0  0  0
    3.2579   -3.3917   -0.1881 C   0  0  0  0  0  0  0  0  0  0  0  0
    2.1331   -4.0583    0.3079 C   0  0  0  0  0  0  0  0  0  0  0  0
    1.1402   -3.4525    0.9751 N   0  0  0  0  0  0  0  0  0  0  0  0
    1.2223   -2.1056    1.0330 C   0  0  0  0  0  0  0  0  0  0  0  0
    2.2835   -1.3764    0.4867 C   0  0  0  0  0  0  0  0  0  0  0  0
    2.1604    0.1131    0.4188 C   0  0  0  0  0  0  0  0  0  0  0  0
    2.9920    0.8076    1.0052 O   0  0  0  0  0  0  0  0  0  0  0  0
    1.4211    0.5329   -0.6621 O   0  0  0  0  0  0  0  0  0  0  0  0
    0.1258   -0.0294   -0.7914 C   0  0  0  0  0  0  0  0  0  0  0  0
   -0.1049   -1.0623   -1.6229 C   0  0  0  0  0  0  0  0  0  0  0  0
   -1.2723   -1.7816   -1.7029 O   0  0  0  0  0  0  0  0  0  0  0  0
   -2.2159   -1.5420   -0.6404 C   0  0  0  0  0  0  0  0  0  0  0  0
   -2.0673   -0.2466    0.0918 C   0  0  0  0  0  0  0  0  0  0  0  0
   -0.9540    0.4972    0.0524 C   0  0  0  0  0  0  0  0  0  0  0  0
   -0.6838    1.5747    0.6395 O   0  5  0  0  0  0  0  0  0  0  0  0
    5.0331   -2.2502    0.4353 H   0  0  0  0  0  0  0  0  0  0  0  0
    4.4706   -1.3971   -1.1016 H   0  0  0  0  0  0  0  0  0  0  0  0
    5.2567   -0.9650    0.0000 H   0  0  0  0  0  0  0  0  0  0  0  0
    4.0512   -4.0071   -0.6129 H   0  0  0  0  0  0  0  0  0  0  0  0
    2.0411   -5.1362    0.2201 H   0  0  0  0  0  0  0  0  0  0  0  0
    0.3848   -1.6059    1.5160 H   0  0  0  0  0  0  0  0  0  0  0  0
    0.6441   -1.4736   -2.2831 H   0  0  0  0  0  0  0  0  0  0  0  0
   -2.1341   -2.3667    0.0781 H   0  0  0  0  0  0  0  0  0  0  0  0
   -3.2153   -1.5975   -1.0849 H   0  0  0  0  0  0  0  0  0  0  0  0
   -2.8960    0.0861    0.7078 H   0  0  0  0  0  0  0  0  0  0  0  0
  1  2  1  0  0  0  0
  1 18  1  0  0  0  0
  1 19  1  0  0  0  0
  1 20  1  0  0  0  0
  2  7  2  0  0  0  0
  2  3  1  0  0  0  0
  3  4  2  0  0  0  0
  3 21  1  0  0  0  0
  4  5  1  0  0  0  0
  4 22  1  0  0  0  0
  5  6  2  0  0  0  0
  6  7  1  0  0  0  0
  6 23  1  0  0  0  0
  7  8  1  0  0  0  0
  8  9  2  0  0  0  0
  8 10  1  0  0  0  0
 10 11  1  0  0  0  0
 11 16  1  0  0  0  0
 11 12  2  0  0  0  0
 12 13  1  0  0  0  0
 12 24  1  0  0  0  0
 13 14  1  0  0  0  0
 14 15  1  0  0  0  0
 14 25  1  0  0  0  0
 14 26  1  0  0  0  0
 15 16  2  0  0  0  0
 15 27  1  0  0  0  0
 16 17  1  0  0  0  0
M  CHG  1  17  -1
M  END
$$$$
