
 OpenBabel03202621352D

 39 41  0  0  0  0  0  0  0  0999 V2000
   -0.8660   -1.5000    0.0000 C   0  0  0  0  0  0  0  0  0  0  0  0
   -0.8660   -0.5000    0.0000 C   0  0  0  0  0  0  0  0  0  0  0  0
   -1.8025    0.1421   -0.8367 C   0  0  0  0  0  0  0  0  0  0  0  0
   -1.9443    1.4700   -1.0392 N   0  0  0  0  0  0  0  0  0  0  0  0
   -1.0842    2.2245   -0.3338 C   0  0  0  0  0  0  0  0  0  0  0  0
   -0.1860    1.6903    0.5817 C   0  0  0  0  0  0  0  0  0  0  0  0
    0.5804    2.4458    1.4521 O   0  0  0  0  0  0  0  0  0  0  0  0
    0.7089    3.7915    1.1994 C   0  0  0  0  0  0  0  0  0  0  0  0
   -0.3439    4.6892    1.4020 C   0  0  0  0  0  0  0  0  0  0  0  0
   -0.2087    6.0209    0.9983 C   0  0  0  0  0  0  0  0  0  0  0  0
    0.9993    6.4651    0.4540 C   0  0  0  0  0  0  0  0  0  0  0  0
    2.0872    5.5943    0.3806 C   0  0  0  0  0  0  0  0  0  0  0  0
    3.3013    6.0731   -0.1454 N   0  0  0  0  0  0  0  0  0  0  0  0
    4.5105    5.5668    0.2843 C   0  0  0  0  0  0  0  0  0  0  0  0
    4.7541    5.2576    1.4469 O   0  0  0  0  0  0  0  0  0  0  0  0
    5.4021    5.5941   -0.7567 O   0  0  0  0  0  0  0  0  0  0  0  0
    6.3509    4.5737   -0.5888 C   0  0  0  0  0  0  0  0  0  0  0  0
    7.5813    4.8583   -0.1291 C   0  0  0  0  0  0  0  0  0  0  0  0
    8.5804    3.9537    0.1042 O   0  0  0  0  0  0  0  0  0  0  0  0
    8.2000    2.5686    0.0139 C   0  0  0  0  0  0  0  0  0  0  0  0
    6.8875    2.2649   -0.6407 C   0  0  0  0  0  0  0  0  0  0  0  0
    5.9827    3.2040   -0.9675 C   0  0  0  0  0  0  0  0  0  0  0  0
    4.8638    3.0915   -1.5354 O   0  5  0  0  0  0  0  0  0  0  0  0
    1.9410    4.2531    0.7447 C   0  0  0  0  0  0  0  0  0  0  0  0
   -0.0733    0.3316    0.7433 N   0  0  0  0  0  0  0  0  0  0  0  0
   -0.0368   -1.6695   -0.7283 H   0  0  0  0  0  0  0  0  0  0  0  0
   -0.5035   -1.7183    1.0332 H   0  0  0  0  0  0  0  0  0  0  0  0
   -0.8660   -2.5700    0.0000 H   0  0  0  0  0  0  0  0  0  0  0  0
   -2.5110   -0.4494   -1.4206 H   0  0  0  0  0  0  0  0  0  0  0  0
   -1.1792    3.2826   -0.5306 H   0  0  0  0  0  0  0  0  0  0  0  0
   -1.2866    4.3453    1.8189 H   0  0  0  0  0  0  0  0  0  0  0  0
   -1.0428    6.7089    1.0994 H   0  0  0  0  0  0  0  0  0  0  0  0
    1.1034    7.4992    0.1407 H   0  0  0  0  0  0  0  0  0  0  0  0
    3.3041    6.2407   -1.1426 H   0  0  0  0  0  0  0  0  0  0  0  0
    7.8958    5.8606    0.1110 H   0  0  0  0  0  0  0  0  0  0  0  0
    8.2020    2.1593    1.0310 H   0  0  0  0  0  0  0  0  0  0  0  0
    8.9973    2.0617   -0.5408 H   0  0  0  0  0  0  0  0  0  0  0  0
    6.6656    1.2260   -0.8557 H   0  0  0  0  0  0  0  0  0  0  0  0
    2.7652    3.5506    0.6189 H   0  0  0  0  0  0  0  0  0  0  0  0
  1  2  1  0  0  0  0
  1 26  1  0  0  0  0
  1 27  1  0  0  0  0
  1 28  1  0  0  0  0
  2 25  2  0  0  0  0
  2  3  1  0  0  0  0
  3  4  2  0  0  0  0
  3 29  1  0  0  0  0
  4  5  1  0  0  0  0
  5  6  2  0  0  0  0
  5 30  1  0  0  0  0
  6  7  1  0  0  0  0
  6 25  1  0  0  0  0
  7  8  1  0  0  0  0
  8 24  2  0  0  0  0
  8  9  1  0  0  0  0
  9 10  2  0  0  0  0
  9 31  1  0  0  0  0
 10 11  1  0  0  0  0
 10 32  1  0  0  0  0
 11 12  2  0  0  0  0
 11 33  1  0  0  0  0
 12 13  1  0  0  0  0
 12 24  1  0  0  0  0
 13 14  1  0  0  0  0
 13 34  1  0  0  0  0
 14 15  2  0  0  0  0
 14 16  1  0  0  0  0
 16 17  1  0  0  0  0
 17 22  1  0  0  0  0
 17 18  2  0  0  0  0
 18 19  1  0  0  0  0
 18 35  1  0  0  0  0
 19 20  1  0  0  0  0
 20 21  1  0  0  0  0
 20 36  1  0  0  0  0
 20 37  1  0  0  0  0
 21 22  2  0  0  0  0
 21 38  1  0  0  0  0
 22 23  1  0  0  0  0
 24 39  1  0  0  0  0
M  CHG  1  23  -1
M  END
$$$$
