
 OpenBabel03202621312D

 18 18  0  0  1  0  0  0  0  0999 V2000
   -2.8518   -2.6715    0.4286 O   0  0  0  0  0  0  0  0  0  0  0  0
   -1.8002   -2.8264   -0.1809 C   0  0  0  0  0  0  0  0  0  0  0  0
   -0.8422   -1.8981   -0.3769 O   0  0  0  0  0  0  0  0  0  0  0  0
   -0.9387   -0.6149    0.2960 C   0  0  1  0  0  0  0  0  0  0  0  0
   -2.1369    0.2025   -0.1664 C   0  0  0  0  0  0  0  0  0  0  0  0
   -1.9476    1.7034   -0.0523 C   0  0  0  0  0  0  0  0  0  0  0  0
   -0.5949    2.2238   -0.4372 C   0  0  0  0  0  0  0  0  0  0  0  0
   -0.3815    3.4234   -0.5677 O   0  0  0  0  0  0  0  0  0  0  0  0
    0.3696    1.3168   -0.6678 O   0  0  0  0  0  0  0  0  0  0  0  0
    0.4023    0.0646    0.0256 C   0  0  0  0  0  0  0  0  0  0  0  0
   -1.4789   -3.7723   -0.6460 H   0  0  0  0  0  0  0  0  0  0  0  0
   -1.0101   -0.8154    1.3733 H   0  0  0  0  0  0  0  0  0  0  0  0
   -2.4099   -0.0675   -1.1946 H   0  0  0  0  0  0  0  0  0  0  0  0
   -3.0096   -0.0674    0.4419 H   0  0  0  0  0  0  0  0  0  0  0  0
   -2.6714    2.1836   -0.7233 H   0  0  0  0  0  0  0  0  0  0  0  0
   -2.1581    2.0421    0.9659 H   0  0  0  0  0  0  0  0  0  0  0  0
    1.0369   -0.5899   -0.5867 H   0  0  0  0  0  0  0  0  0  0  0  0
    0.9482    0.2159    0.9630 H   0  0  0  0  0  0  0  0  0  0  0  0
  1  2  2  0  0  0  0
  2  3  1  0  0  0  0
  2 11  1  0  0  0  0
  4  3  1  0  0  0  0
  4  5  1  0  0  0  0
  4 10  1  0  0  0  0
  4 12  1  6  0  0  0
  5  6  1  0  0  0  0
  5 13  1  0  0  0  0
  5 14  1  0  0  0  0
  6  7  1  0  0  0  0
  6 15  1  0  0  0  0
  6 16  1  0  0  0  0
  7  8  2  0  0  0  0
  7  9  1  0  0  0  0
  9 10  1  0  0  0  0
 10 17  1  0  0  0  0
 10 18  1  0  0  0  0
M  END
$$$$
