
 OpenBabel03202621352D

 41 41  0  0  1  0  0  0  0  0999 V2000
    0.2788   -1.7601    0.0000 C   0  0  0  0  0  0  0  0  0  0  0  0
   -0.3090   -0.9511    0.0000 C   0  0  0  0  0  0  0  0  0  0  0  0
   -0.4755    0.2004   -0.7842 C   0  0  0  0  0  0  0  0  0  0  0  0
   -1.0801    1.1025    0.0704 N   0  0  0  0  0  0  0  0  0  0  0  0
   -2.5118    1.2679    0.0884 C   0  0  0  0  0  0  0  0  0  0  0  0
   -3.1798    0.0753    0.8457 C   0  0  2  0  0  0  0  0  0  0  0  0
   -4.5602    0.4876    1.0666 O   0  0  0  0  0  0  0  0  0  0  0  0
   -3.1043   -1.3383    0.0000 C   0  0  1  0  0  0  0  0  0  0  0  0
   -3.8475   -2.0074    0.0000 C   0  0  0  0  0  0  0  0  0  0  0  0
   -2.3264   -1.5686   -1.2818 N   0  0  0  0  0  0  0  0  0  0  0  0
   -2.1031   -2.7423   -1.9189 C   0  0  0  0  0  0  0  0  0  0  0  0
   -2.3530   -2.8275   -3.1155 O   0  0  0  0  0  0  0  0  0  0  0  0
   -1.5878   -3.7457   -1.2256 O   0  0  0  0  0  0  0  0  0  0  0  0
   -0.7864   -3.9126    0.0000 C   0  0  0  0  0  0  0  0  0  0  0  0
   -0.9482   -5.5720   -0.1066 C   0  0  0  0  0  0  0  0  0  0  0  0
    0.1918   -3.7047    0.0000 C   0  0  0  0  0  0  0  0  0  0  0  0
   -1.6416   -3.7436    1.2938 C   0  0  0  0  0  0  0  0  0  0  0  0
   -0.5989    0.8501    1.2930 N   0  0  0  0  0  0  0  0  0  0  0  0
   -0.5048   -0.4663    1.3300 N   0  0  0  0  0  0  0  0  0  0  0  0
    1.2059   -1.3397    0.4951 H   0  0  0  0  0  0  0  0  0  0  0  0
    0.5695   -1.7498   -1.0947 H   0  0  0  0  0  0  0  0  0  0  0  0
    0.9077   -2.6257    0.0000 H   0  0  0  0  0  0  0  0  0  0  0  0
   -0.2851    0.4320   -1.8246 H   0  0  0  0  0  0  0  0  0  0  0  0
   -2.7278    2.2195    0.5868 H   0  0  0  0  0  0  0  0  0  0  0  0
   -2.8681    1.3647   -0.9416 H   0  0  0  0  0  0  0  0  0  0  0  0
   -2.7927   -0.0959    1.8574 H   0  0  0  0  0  0  0  0  0  0  0  0
   -4.5467    1.2652    1.6534 H   0  0  0  0  0  0  0  0  0  0  0  0
   -3.6003   -0.6379   -0.7203 H   0  0  0  0  0  0  0  0  0  0  0  0
   -4.8168   -1.4231    0.0107 H   0  0  0  0  0  0  0  0  0  0  0  0
   -3.7554   -2.3345    1.0578 H   0  0  0  0  0  0  0  0  0  0  0  0
   -4.6427   -2.7233    0.0000 H   0  0  0  0  0  0  0  0  0  0  0  0
   -2.5586   -0.9365   -2.0459 H   0  0  0  0  0  0  0  0  0  0  0  0
   -2.0096   -5.8566   -0.1470 H   0  0  0  0  0  0  0  0  0  0  0  0
   -0.5091   -5.9574   -1.0349 H   0  0  0  0  0  0  0  0  0  0  0  0
   -0.4835   -6.1024    0.7377 H   0  0  0  0  0  0  0  0  0  0  0  0
    0.5308   -4.1973   -0.9635 H   0  0  0  0  0  0  0  0  0  0  0  0
    0.5576   -4.3022    0.8867 H   0  0  0  0  0  0  0  0  0  0  0  0
    1.2384   -3.4823    0.0000 H   0  0  0  0  0  0  0  0  0  0  0  0
   -1.6553   -2.7273    1.6676 H   0  0  0  0  0  0  0  0  0  0  0  0
   -1.2486   -4.3522    2.1285 H   0  0  0  0  0  0  0  0  0  0  0  0
   -2.6752   -4.0775    1.1135 H   0  0  0  0  0  0  0  0  0  0  0  0
  1  2  1  0  0  0  0
  1 20  1  0  0  0  0
  1 21  1  0  0  0  0
  1 22  1  0  0  0  0
  2 19  1  0  0  0  0
  2  3  2  0  0  0  0
  3  4  1  0  0  0  0
  3 23  1  0  0  0  0
  4  5  1  0  0  0  0
  4 18  1  0  0  0  0
  5  6  1  0  0  0  0
  5 24  1  0  0  0  0
  5 25  1  0  0  0  0
  6  7  1  0  0  0  0
  6  8  1  0  0  0  0
  6 26  1  6  0  0  0
  7 27  1  0  0  0  0
  8  9  1  0  0  0  0
  8 10  1  0  0  0  0
  8 28  1  1  0  0  0
  9 29  1  0  0  0  0
  9 30  1  0  0  0  0
  9 31  1  0  0  0  0
 10 11  1  0  0  0  0
 10 32  1  0  0  0  0
 11 12  2  0  0  0  0
 11 13  1  0  0  0  0
 13 14  1  0  0  0  0
 14 15  1  0  0  0  0
 14 16  1  0  0  0  0
 14 17  1  0  0  0  0
 15 33  1  0  0  0  0
 15 34  1  0  0  0  0
 15 35  1  0  0  0  0
 16 36  1  0  0  0  0
 16 37  1  0  0  0  0
 16 38  1  0  0  0  0
 17 39  1  0  0  0  0
 17 40  1  0  0  0  0
 17 41  1  0  0  0  0
 18 19  2  0  0  0  0
M  END
$$$$
