
 OpenBabel03202621282D

 16 17  0  0  0  0  0  0  0  0999 V2000
    1.4945   -0.9706    0.0000 C   0  0  0  0  0  0  0  0  0  0  0  0
    0.5000   -0.8660    0.0000 C   0  0  0  0  0  0  0  0  0  0  0  0
   -0.1691   -1.6092    0.0000 C   0  0  0  0  0  0  0  0  0  0  0  0
   -1.0827   -1.2024    0.0000 N   0  0  0  0  0  0  0  0  0  0  0  0
   -1.9487   -1.7024    0.0000 C   0  0  0  0  0  0  0  0  0  0  0  0
   -1.9487   -2.7024    0.0000 C   0  0  0  0  0  0  0  0  0  0  0  0
   -2.8147   -3.2024    0.0000 C   0  0  0  0  0  0  0  0  0  0  0  0
   -3.6808   -2.7024    0.0000 C   0  0  0  0  0  0  0  0  0  0  0  0
   -4.5468   -3.2024    0.0000 O   0  0  0  0  0  0  0  0  0  0  0  0
   -3.6808   -1.7024    0.0000 C   0  0  0  0  0  0  0  0  0  0  0  0
   -4.5468   -1.2024    0.0000 C   0  0  0  0  0  0  0  0  0  0  0  0
   -4.5468   -0.2024    0.0000 O   0  0  0  0  0  0  0  0  0  0  0  0
   -5.4128   -1.7024    0.0000 O   0  0  0  0  0  0  0  0  0  0  0  0
   -2.8147   -1.2024    0.0000 C   0  0  0  0  0  0  0  0  0  0  0  0
   -0.9781   -0.2079    0.0000 N   0  0  0  0  0  0  0  0  0  0  0  0
   -0.0000   -0.0000    0.0000 N   0  0  0  0  0  0  0  0  0  0  0  0
  1  2  1  0  0  0  0
  2 16  1  0  0  0  0
  2  3  2  0  0  0  0
  3  4  1  0  0  0  0
  4  5  1  0  0  0  0
  4 15  1  0  0  0  0
  5 14  2  0  0  0  0
  5  6  1  0  0  0  0
  6  7  2  0  0  0  0
  7  8  1  0  0  0  0
  8  9  1  0  0  0  0
  8 10  2  0  0  0  0
 10 11  1  0  0  0  0
 10 14  1  0  0  0  0
 11 12  2  0  0  0  0
 11 13  1  0  0  0  0
 15 16  2  0  0  0  0
M  END
$$$$
