
 OpenBabel03202621332D

 19 20  0  0  0  0  0  0  0  0999 V2000
   -0.2788   -1.7601    0.0000 C   0  0  0  0  0  0  0  0  0  0  0  0
   -0.5878   -0.8090    0.0000 C   0  0  0  0  0  0  0  0  0  0  0  0
   -1.7885   -0.2996   -0.4785 C   0  0  0  0  0  0  0  0  0  0  0  0
   -1.8602    0.9907   -0.0402 N   0  0  0  0  0  0  0  0  0  0  0  0
   -2.9168    1.9765   -0.1898 C   0  0  0  0  0  0  0  0  0  0  0  0
   -4.2967    1.4353   -0.0588 C   0  0  0  0  0  0  0  0  0  0  0  0
   -4.6260    0.2347    0.5307 N   0  0  0  0  0  0  0  0  0  0  0  0
   -5.9316    0.2156    0.4132 C   0  0  0  0  0  0  0  0  0  0  0  0
   -6.4425    1.3167   -0.1899 O   0  0  0  0  0  0  0  0  0  0  0  0
   -5.3551    2.1347   -0.5032 N   0  0  0  0  0  0  0  0  0  0  0  0
   -0.6988    1.3504    0.5287 N   0  0  0  0  0  0  0  0  0  0  0  0
    0.0685    0.2714    0.5816 N   0  0  0  0  0  0  0  0  0  0  0  0
   -0.2453   -1.9440    1.1003 H   0  0  0  0  0  0  0  0  0  0  0  0
    0.7520   -1.6250   -0.4050 H   0  0  0  0  0  0  0  0  0  0  0  0
    0.0518   -2.7777    0.0000 H   0  0  0  0  0  0  0  0  0  0  0  0
   -2.6136   -0.7763   -0.9900 H   0  0  0  0  0  0  0  0  0  0  0  0
   -2.7621    2.7426    0.5788 H   0  0  0  0  0  0  0  0  0  0  0  0
   -2.7699    2.4353   -1.1734 H   0  0  0  0  0  0  0  0  0  0  0  0
   -6.6334   -0.5427    0.7243 H   0  0  0  0  0  0  0  0  0  0  0  0
  1  2  1  0  0  0  0
  1 13  1  0  0  0  0
  1 14  1  0  0  0  0
  1 15  1  0  0  0  0
  2 12  1  0  0  0  0
  2  3  2  0  0  0  0
  3  4  1  0  0  0  0
  3 16  1  0  0  0  0
  4  5  1  0  0  0  0
  4 11  1  0  0  0  0
  5  6  1  0  0  0  0
  5 17  1  0  0  0  0
  5 18  1  0  0  0  0
  6 10  2  0  0  0  0
  6  7  1  0  0  0  0
  7  8  2  0  0  0  0
  8  9  1  0  0  0  0
  8 19  1  0  0  0  0
  9 10  1  0  0  0  0
 11 12  2  0  0  0  0
M  END
$$$$
