
 OpenBabel03202621322D

 19 19  0  0  0  0  0  0  0  0999 V2000
   -0.8660   -1.5000    0.0000 C   0  0  0  0  0  0  0  0  0  0  0  0
   -0.8660   -0.5000    0.0000 C   0  0  0  0  0  0  0  0  0  0  0  0
   -2.0788    0.2400    0.0059 C   0  0  0  0  0  0  0  0  0  0  0  0
   -2.2417    1.5882    0.0241 N   0  0  0  0  0  0  0  0  0  0  0  0
   -1.0901    2.2590    0.0090 C   0  0  0  0  0  0  0  0  0  0  0  0
    0.1578    1.6605   -0.0332 C   0  0  0  0  0  0  0  0  0  0  0  0
    1.4204    2.4901   -0.3204 C   0  0  0  0  0  0  0  0  0  0  0  0
    2.4485    1.5808    0.1605 O   0  0  0  0  0  0  0  0  0  0  0  0
    3.7363    1.9323    0.0123 C   0  0  0  0  0  0  0  0  0  0  0  0
    4.6844    1.1329    0.0204 O   0  0  0  0  0  0  0  0  0  0  0  0
    0.2513    0.2761   -0.0159 N   0  0  0  0  0  0  0  0  0  0  0  0
   -1.8948   -1.8961   -0.0009 H   0  0  0  0  0  0  0  0  0  0  0  0
    0.1825   -1.8418   -0.0008 H   0  0  0  0  0  0  0  0  0  0  0  0
   -0.8660   -2.5700    0.0000 H   0  0  0  0  0  0  0  0  0  0  0  0
   -3.0445   -0.2764   -0.0001 H   0  0  0  0  0  0  0  0  0  0  0  0
   -1.2409    3.3521   -0.0186 H   0  0  0  0  0  0  0  0  0  0  0  0
    0.8583    3.2950    0.1965 H   0  0  0  0  0  0  0  0  0  0  0  0
    2.0243    3.3466    0.0073 H   0  0  0  0  0  0  0  0  0  0  0  0
    3.9063    3.0250   -0.0425 H   0  0  0  0  0  0  0  0  0  0  0  0
  1  2  1  0  0  0  0
  1 12  1  0  0  0  0
  1 13  1  0  0  0  0
  1 14  1  0  0  0  0
  2 11  2  0  0  0  0
  2  3  1  0  0  0  0
  3  4  2  0  0  0  0
  3 15  1  0  0  0  0
  4  5  1  0  0  0  0
  5  6  2  0  0  0  0
  5 16  1  0  0  0  0
  6  7  1  0  0  0  0
  6 11  1  0  0  0  0
  7  8  1  0  0  0  0
  7 17  1  0  0  0  0
  7 18  1  0  0  0  0
  8  9  1  0  0  0  0
  9 10  2  0  0  0  0
  9 19  1  0  0  0  0
M  END
$$$$
