
 OpenBabel03202621392D

 20 20  0  0  0  0  0  0  0  0999 V2000
   -2.5981   -1.5000    0.0000 C   0  0  0  0  0  0  0  0  0  0  0  0
   -1.7321   -2.0000    0.0000 S   0  0  0  0  0  0  0  0  0  0  0  0
   -0.6805   -2.0013    1.4966 C   0  0  0  0  0  0  0  0  0  0  0  0
   -0.1383   -0.5973    1.5706 C   0  0  0  0  0  0  0  0  0  0  0  0
   -1.1207    0.2035    2.0803 C   0  0  0  0  0  0  0  0  0  0  0  0
   -1.6472    1.0498    1.1355 C   0  0  0  0  0  0  0  0  0  0  0  0
   -0.8660    1.5000    0.0000 C   0  0  0  0  0  0  0  0  0  0  0  0
   -0.8660    2.5000    0.0000 C   0  0  0  0  0  0  0  0  0  0  0  0
    0.2623    0.8283   -0.2888 N   0  0  0  0  0  0  0  0  0  0  0  0
    0.6302   -0.2427    0.4914 N   0  0  0  0  0  0  0  0  0  0  0  0
   -2.7436   -1.4096   -1.0930 H   0  0  0  0  0  0  0  0  0  0  0  0
   -3.2650   -2.3034    0.3684 H   0  0  0  0  0  0  0  0  0  0  0  0
   -3.5247   -0.9650    0.0000 H   0  0  0  0  0  0  0  0  0  0  0  0
    0.1474   -2.7015    1.3347 H   0  0  0  0  0  0  0  0  0  0  0  0
   -1.2217   -2.3260    2.3891 H   0  0  0  0  0  0  0  0  0  0  0  0
   -1.7111   -0.0745    2.9479 H   0  0  0  0  0  0  0  0  0  0  0  0
   -2.5439    1.6011    1.4401 H   0  0  0  0  0  0  0  0  0  0  0  0
   -0.4242    2.7781    0.9923 H   0  0  0  0  0  0  0  0  0  0  0  0
   -1.9291    2.7370   -0.2404 H   0  0  0  0  0  0  0  0  0  0  0  0
   -0.8660    3.5700    0.0000 H   0  0  0  0  0  0  0  0  0  0  0  0
  1  2  1  0  0  0  0
  1 11  1  0  0  0  0
  1 12  1  0  0  0  0
  1 13  1  0  0  0  0
  2  3  1  0  0  0  0
  3  4  1  0  0  0  0
  3 14  1  0  0  0  0
  3 15  1  0  0  0  0
  4 10  2  0  0  0  0
  4  5  1  0  0  0  0
  5  6  2  0  0  0  0
  5 16  1  0  0  0  0
  6  7  1  0  0  0  0
  6 17  1  0  0  0  0
  7  8  1  0  0  0  0
  7  9  2  0  0  0  0
  8 18  1  0  0  0  0
  8 19  1  0  0  0  0
  8 20  1  0  0  0  0
  9 10  1  0  0  0  0
M  END
$$$$
