
 OpenBabel03202621302D

 18 18  0  0  0  0  0  0  0  0999 V2000
   -0.8660   -1.5000    0.0000 C   0  0  0  0  0  0  0  0  0  0  0  0
   -0.8660   -0.5000    0.0000 C   0  0  0  0  0  0  0  0  0  0  0  0
   -1.9760    0.3622    0.0000 C   0  0  0  0  0  0  0  0  0  0  0  0
   -1.9941    1.7272   -0.0000 N   0  0  0  0  0  0  0  0  0  0  0  0
   -0.8068    2.3525   -0.0000 C   0  0  0  0  0  0  0  0  0  0  0  0
    0.3964    1.6804    0.0000 C   0  0  0  0  0  0  0  0  0  0  0  0
    1.6080    2.3909    0.0000 N   0  0  0  0  0  0  0  0  0  0  0  0
    2.8744    1.8816    0.0000 C   0  0  0  0  0  0  0  0  0  0  0  0
    3.8714    2.5947    0.0000 O   0  0  0  0  0  0  0  0  0  0  0  0
    0.3256    0.2807    0.0000 C   0  0  0  0  0  0  0  0  0  0  0  0
   -1.9085   -1.8584   -0.0000 H   0  0  0  0  0  0  0  0  0  0  0  0
    0.1658   -1.8874   -0.0000 H   0  0  0  0  0  0  0  0  0  0  0  0
   -0.8660   -2.5700    0.0000 H   0  0  0  0  0  0  0  0  0  0  0  0
   -2.9896   -0.0468    0.0000 H   0  0  0  0  0  0  0  0  0  0  0  0
   -0.8609    3.4381   -0.0000 H   0  0  0  0  0  0  0  0  0  0  0  0
    1.5760    3.4028   -0.0000 H   0  0  0  0  0  0  0  0  0  0  0  0
    2.9561    0.7876   -0.0000 H   0  0  0  0  0  0  0  0  0  0  0  0
    1.2713   -0.2640    0.0000 H   0  0  0  0  0  0  0  0  0  0  0  0
  1  2  1  0  0  0  0
  1 11  1  0  0  0  0
  1 12  1  0  0  0  0
  1 13  1  0  0  0  0
  2 10  2  0  0  0  0
  2  3  1  0  0  0  0
  3  4  2  0  0  0  0
  3 14  1  0  0  0  0
  4  5  1  0  0  0  0
  5  6  2  0  0  0  0
  5 15  1  0  0  0  0
  6  7  1  0  0  0  0
  6 10  1  0  0  0  0
  7  8  1  0  0  0  0
  7 16  1  0  0  0  0
  8  9  2  0  0  0  0
  8 17  1  0  0  0  0
 10 18  1  0  0  0  0
M  END
$$$$
