
 OpenBabel03202621342D

 23 22  0  0  0  0  0  0  0  0999 V2000
    6.0622   -1.5000    0.0000 C   0  0  0  0  0  0  0  0  0  0  0  0
    6.0622   -0.5000    0.0000 S   0  0  0  0  0  0  0  0  0  0  0  0
    4.3798    0.0739   -0.3971 C   0  0  0  0  0  0  0  0  0  0  0  0
    3.2081   -0.8845   -0.2205 C   0  0  0  0  0  0  0  0  0  0  0  0
    2.0267   -0.0957   -0.3821 O   0  0  0  0  0  0  0  0  0  0  0  0
    0.8226   -0.8307   -0.2145 C   0  0  0  0  0  0  0  0  0  0  0  0
   -0.2529    0.1749    0.1622 C   0  0  0  0  0  0  0  0  0  0  0  0
   -1.6037   -0.4778    0.3816 C   0  0  0  0  0  0  0  0  0  0  0  0
   -2.5462    0.4883    0.8253 O   0  0  0  0  0  0  0  0  0  0  0  0
    6.2520   -1.6797   -1.0774 H   0  0  0  0  0  0  0  0  0  0  0  0
    7.0135   -1.6709    0.5389 H   0  0  0  0  0  0  0  0  0  0  0  0
    6.0622   -2.5700    0.0000 H   0  0  0  0  0  0  0  0  0  0  0  0
    4.2072    0.9599    0.2302 H   0  0  0  0  0  0  0  0  0  0  0  0
    4.3843    0.4569   -1.4230 H   0  0  0  0  0  0  0  0  0  0  0  0
    3.2124   -1.3246    0.7820 H   0  0  0  0  0  0  0  0  0  0  0  0
    3.2299   -1.6766   -0.9762 H   0  0  0  0  0  0  0  0  0  0  0  0
    0.9295   -1.5821    0.5732 H   0  0  0  0  0  0  0  0  0  0  0  0
    0.5801   -1.3331   -1.1594 H   0  0  0  0  0  0  0  0  0  0  0  0
    0.0502    0.7151    1.0698 H   0  0  0  0  0  0  0  0  0  0  0  0
   -0.3297    0.9562   -0.6060 H   0  0  0  0  0  0  0  0  0  0  0  0
   -1.5405   -1.2591    1.1458 H   0  0  0  0  0  0  0  0  0  0  0  0
   -1.9800   -0.9300   -0.5419 H   0  0  0  0  0  0  0  0  0  0  0  0
   -2.5433    1.2232    0.1873 H   0  0  0  0  0  0  0  0  0  0  0  0
  1  2  1  0  0  0  0
  1 10  1  0  0  0  0
  1 11  1  0  0  0  0
  1 12  1  0  0  0  0
  2  3  1  0  0  0  0
  3  4  1  0  0  0  0
  3 13  1  0  0  0  0
  3 14  1  0  0  0  0
  4  5  1  0  0  0  0
  4 15  1  0  0  0  0
  4 16  1  0  0  0  0
  5  6  1  0  0  0  0
  6  7  1  0  0  0  0
  6 17  1  0  0  0  0
  6 18  1  0  0  0  0
  7  8  1  0  0  0  0
  7 19  1  0  0  0  0
  7 20  1  0  0  0  0
  8  9  1  0  0  0  0
  8 21  1  0  0  0  0
  8 22  1  0  0  0  0
  9 23  1  0  0  0  0
M  END
$$$$
