
 OpenBabel03202621382D

 18 17  0  0  1  0  0  0  0  0999 V2000
    1.7321   -2.0000    0.0000 C   0  0  0  0  0  0  0  0  0  0  0  0
    2.5981   -1.5000    0.0000 C   0  0  0  0  0  0  0  0  0  0  0  0
    3.3754   -0.0945    0.0000 C   0  0  1  0  0  0  0  0  0  0  0  0
    4.3670    0.9554   -0.0000 O   0  0  0  0  0  0  0  0  0  0  0  0
    2.2039    0.7092   -0.0000 C   0  0  0  0  0  0  0  0  0  0  0  0
    2.0788    1.9269    0.0000 O   0  0  0  0  0  0  0  0  0  0  0  0
    0.8660   -0.5000    0.0000 S   0  0  0  0  0  0  0  0  0  0  0  0
    0.0000    0.0000    0.0000 C   0  0  0  0  0  0  0  0  0  0  0  0
    0.4098   -2.1891   -0.0000 H   0  0  0  0  0  0  0  0  0  0  0  0
    1.9278   -3.1560   -0.0000 H   0  0  0  0  0  0  0  0  0  0  0  0
    0.8055   -2.5350    0.0000 H   0  0  0  0  0  0  0  0  0  0  0  0
    3.1926   -2.4738    0.0000 H   0  0  0  0  0  0  0  0  0  0  0  0
    3.6607   -1.8220   -0.0000 H   0  0  0  0  0  0  0  0  0  0  0  0
    4.3645   -0.5476   -0.0000 H   0  0  0  0  0  0  0  0  0  0  0  0
    5.3134    0.6866    0.0000 H   0  0  0  0  0  0  0  0  0  0  0  0
    0.1211    1.0852    0.0000 H   0  0  0  0  0  0  0  0  0  0  0  0
   -0.8232   -0.7252    0.0000 H   0  0  0  0  0  0  0  0  0  0  0  0
   -0.9266    0.5350    0.0000 H   0  0  0  0  0  0  0  0  0  0  0  0
  1  2  1  0  0  0  0
  1  9  1  0  0  0  0
  1 10  1  0  0  0  0
  1 11  1  0  0  0  0
  2  3  1  0  0  0  0
  2 12  1  0  0  0  0
  2 13  1  0  0  0  0
  3  4  1  0  0  0  0
  3  5  1  0  0  0  0
  3 14  1  1  0  0  0
  4 15  1  0  0  0  0
  5  6  2  0  0  0  0
  5  7  1  0  0  0  0
  7  8  1  0  0  0  0
  8 16  1  0  0  0  0
  8 17  1  0  0  0  0
  8 18  1  0  0  0  0
M  END
$$$$
