
 OpenBabel03202621382D

 19 18  0  0  0  0  0  0  0  0999 V2000
    6.0622   -1.5000    0.0000 C   0  0  0  0  0  0  0  0  0  0  0  0
    6.0622   -0.5000    0.0000 C   0  0  0  0  0  0  0  0  0  0  0  0
    4.9134    0.2110    0.1317 C   0  0  0  0  0  0  0  0  0  0  0  0
    3.6138   -0.4261    0.2621 C   0  0  0  0  0  0  0  0  0  0  0  0
    2.4210    0.1557    0.0716 C   0  0  0  0  0  0  0  0  0  0  0  0
    1.1849   -0.6896    0.0927 C   0  0  0  0  0  0  0  0  0  0  0  0
    0.0287    0.1350    0.0041 O   0  0  0  0  0  0  0  0  0  0  0  0
   -1.1217   -0.5696   -0.1076 C   0  0  0  0  0  0  0  0  0  0  0  0
   -2.2245   -0.0621   -0.2144 O   0  0  0  0  0  0  0  0  0  0  0  0
    6.3022   -1.6515   -1.0794 H   0  0  0  0  0  0  0  0  0  0  0  0
    6.9879   -1.6614    0.6009 H   0  0  0  0  0  0  0  0  0  0  0  0
    6.0622   -2.5700    0.0000 H   0  0  0  0  0  0  0  0  0  0  0  0
    6.9292    0.1547   -0.1384 H   0  0  0  0  0  0  0  0  0  0  0  0
    4.9398    1.2989    0.0845 H   0  0  0  0  0  0  0  0  0  0  0  0
    3.6207   -1.4947    0.4789 H   0  0  0  0  0  0  0  0  0  0  0  0
    2.3341    1.2072   -0.1822 H   0  0  0  0  0  0  0  0  0  0  0  0
    1.2085   -1.3723   -0.7664 H   0  0  0  0  0  0  0  0  0  0  0  0
    1.1385   -1.2656    1.0250 H   0  0  0  0  0  0  0  0  0  0  0  0
   -0.9645   -1.6606   -0.0907 H   0  0  0  0  0  0  0  0  0  0  0  0
  1  2  1  0  0  0  0
  1 10  1  0  0  0  0
  1 11  1  0  0  0  0
  1 12  1  0  0  0  0
  2  3  2  3  0  0  0
  2 13  1  0  0  0  0
  3  4  1  0  0  0  0
  3 14  1  0  0  0  0
  4  5  2  3  0  0  0
  4 15  1  0  0  0  0
  5  6  1  0  0  0  0
  5 16  1  0  0  0  0
  6  7  1  0  0  0  0
  6 17  1  0  0  0  0
  6 18  1  0  0  0  0
  7  8  1  0  0  0  0
  8  9  2  0  0  0  0
  8 19  1  0  0  0  0
M  END
$$$$
