
 OpenBabel03202621342D

 20 20  0  0  1  0  0  0  0  0999 V2000
    2.3898   -0.8235    0.1899 N   0  0  0  0  0  0  0  0  0  0  0  0
    1.0331   -0.9769   -0.3346 C   0  0  2  0  0  0  0  0  0  0  0  0
    0.4105   -2.3030    0.1039 C   0  0  0  0  0  0  0  0  0  0  0  0
   -1.1007   -2.0797    0.0566 C   0  0  0  0  0  0  0  0  0  0  0  0
   -1.3117   -0.5784   -0.1096 C   0  0  0  0  0  0  0  0  0  0  0  0
    0.0387    0.0648    0.2006 C   0  0  1  0  0  0  0  0  0  0  0  0
    0.1200    1.3125   -0.4972 O   0  0  0  0  0  0  0  0  0  0  0  0
    0.9583    2.2404    0.0154 C   0  0  0  0  0  0  0  0  0  0  0  0
    1.0481    3.3799   -0.4114 O   0  0  0  0  0  0  0  0  0  0  0  0
    2.9363   -1.6557   -0.0376 H   0  0  0  0  0  0  0  0  0  0  0  0
    2.8585   -0.0547   -0.2923 H   0  0  0  0  0  0  0  0  0  0  0  0
    1.0791   -0.9292   -1.4295 H   0  0  0  0  0  0  0  0  0  0  0  0
    0.7034   -2.5631    1.1287 H   0  0  0  0  0  0  0  0  0  0  0  0
    0.7187   -3.1317   -0.5431 H   0  0  0  0  0  0  0  0  0  0  0  0
   -1.5581   -2.6242   -0.7770 H   0  0  0  0  0  0  0  0  0  0  0  0
   -1.5678   -2.4431    0.9786 H   0  0  0  0  0  0  0  0  0  0  0  0
   -2.0971   -0.1983    0.5521 H   0  0  0  0  0  0  0  0  0  0  0  0
   -1.6265   -0.3495   -1.1343 H   0  0  0  0  0  0  0  0  0  0  0  0
    0.1372    0.2072    1.2859 H   0  0  0  0  0  0  0  0  0  0  0  0
    1.5669    1.8582    0.8489 H   0  0  0  0  0  0  0  0  0  0  0  0
  1 10  1  0  0  0  0
  1 11  1  0  0  0  0
  2  1  1  0  0  0  0
  2  3  1  0  0  0  0
  2  6  1  0  0  0  0
  2 12  1  1  0  0  0
  3  4  1  0  0  0  0
  3 13  1  0  0  0  0
  3 14  1  0  0  0  0
  4  5  1  0  0  0  0
  4 15  1  0  0  0  0
  4 16  1  0  0  0  0
  5  6  1  0  0  0  0
  5 17  1  0  0  0  0
  5 18  1  0  0  0  0
  6  7  1  0  0  0  0
  6 19  1  6  0  0  0
  7  8  1  0  0  0  0
  8  9  2  0  0  0  0
  8 20  1  0  0  0  0
M  END
$$$$
