
 OpenBabel03202621312D

 26 26  0  0  0  0  0  0  0  0999 V2000
   -2.4432   -1.7319    0.0000 C   0  0  0  0  0  0  0  0  0  0  0  0
   -1.4487   -1.8364    0.0000 C   0  0  0  0  0  0  0  0  0  0  0  0
   -0.5310   -2.6790    0.0002 C   0  0  0  0  0  0  0  0  0  0  0  0
    0.7293   -2.9033    0.0001 N   0  0  0  0  0  0  0  0  0  0  0  0
    1.0000   -1.0000    0.0000 C   0  0  0  0  0  0  0  0  0  0  0  0
    1.0000    0.0000    0.0000 Si  0  0  0  0  0  0  0  0  0  0  0  0
    2.0000    0.0000    0.0000 C   0  0  0  0  0  0  0  0  0  0  0  0
    1.0000    1.0000    0.0000 C   0  0  0  0  0  0  0  0  0  0  0  0
    0.0000    0.0000    0.0000 C   0  0  0  0  0  0  0  0  0  0  0  0
   -0.0724   -4.0768   -0.0000 N   0  0  0  0  0  0  0  0  0  0  0  0
   -1.4461   -3.5459   -0.0000 N   0  0  0  0  0  0  0  0  0  0  0  0
   -2.7194   -0.6675   -0.0000 H   0  0  0  0  0  0  0  0  0  0  0  0
   -3.0358   -2.6686   -0.0000 H   0  0  0  0  0  0  0  0  0  0  0  0
   -3.5073   -1.6201    0.0000 H   0  0  0  0  0  0  0  0  0  0  0  0
   -0.2409   -1.8401   -0.0007 H   0  0  0  0  0  0  0  0  0  0  0  0
    1.6029   -2.0701   -0.0000 H   0  0  0  0  0  0  0  0  0  0  0  0
    2.0330   -1.6824    0.0000 H   0  0  0  0  0  0  0  0  0  0  0  0
    2.9815   -0.7527    0.0000 H   0  0  0  0  0  0  0  0  0  0  0  0
    2.8397    0.8702   -0.0000 H   0  0  0  0  0  0  0  0  0  0  0  0
    3.0700    0.0000    0.0000 H   0  0  0  0  0  0  0  0  0  0  0  0
    1.8484    1.8550   -0.0000 H   0  0  0  0  0  0  0  0  0  0  0  0
    0.1695    1.8725    0.0000 H   0  0  0  0  0  0  0  0  0  0  0  0
    1.0000    2.0700    0.0000 H   0  0  0  0  0  0  0  0  0  0  0  0
   -0.8175    0.9018   -0.0000 H   0  0  0  0  0  0  0  0  0  0  0  0
   -0.8064   -0.4739    0.0001 H   0  0  0  0  0  0  0  0  0  0  0  0
   -1.0700    0.0000    0.0000 H   0  0  0  0  0  0  0  0  0  0  0  0
  1  2  1  0  0  0  0
  1 12  1  0  0  0  0
  1 13  1  0  0  0  0
  1 14  1  0  0  0  0
  2 11  1  0  0  0  0
  2  3  2  0  0  0  0
  3  4  1  0  0  0  0
  3 15  1  0  0  0  0
  4  5  1  0  0  0  0
  4 10  1  0  0  0  0
  5  6  1  0  0  0  0
  5 16  1  0  0  0  0
  5 17  1  0  0  0  0
  6  7  1  0  0  0  0
  6  8  1  0  0  0  0
  6  9  1  0  0  0  0
  7 18  1  0  0  0  0
  7 19  1  0  0  0  0
  7 20  1  0  0  0  0
  8 21  1  0  0  0  0
  8 22  1  0  0  0  0
  8 23  1  0  0  0  0
  9 24  1  0  0  0  0
  9 25  1  0  0  0  0
  9 26  1  0  0  0  0
 10 11  2  0  0  0  0
M  END
$$$$
