
 OpenBabel03202621362D

 33 33  0  0  0  0  0  0  0  0999 V2000
    4.3301   -1.5000    0.0000 C   0  0  0  0  0  0  0  0  0  0  0  0
    4.3301   -0.5000    0.0000 C   0  0  0  0  0  0  0  0  0  0  0  0
    3.7790    0.9473   -0.1775 C   0  0  0  0  0  0  0  0  0  0  0  0
    2.5407    0.5744   -0.7938 C   0  0  0  0  0  0  0  0  0  0  0  0
    1.4916    1.3234   -1.3105 O   0  0  0  0  0  0  0  0  0  0  0  0
    0.5154    0.3333   -1.0668 C   0  0  0  0  0  0  0  0  0  0  0  0
    0.8856   -1.0768   -1.2599 C   0  0  0  0  0  0  0  0  0  0  0  0
    0.5429   -1.9729   -0.2689 C   0  0  0  0  0  0  0  0  0  0  0  0
   -0.6926   -1.6288    0.1660 C   0  0  0  0  0  0  0  0  0  0  0  0
   -1.4300   -1.9247   -1.0782 N   0  0  0  0  0  0  0  0  0  0  0  0
   -2.5999   -1.3133   -1.2689 C   0  0  0  0  0  0  0  0  0  0  0  0
   -2.9688   -0.1632   -2.4058 S   0  0  0  0  0  0  0  0  0  0  0  0
   -3.4641   -2.0000    0.0000 S   0  0  0  0  0  0  0  0  0  0  0  0
   -4.3301   -1.5000    0.0000 C   0  0  0  0  0  0  0  0  0  0  0  0
   -0.8937   -0.3040    0.6613 C   0  0  0  0  0  0  0  0  0  0  0  0
   -0.3544    0.7258   -0.0498 C   0  0  0  0  0  0  0  0  0  0  0  0
    3.7581   -1.6683    0.9427 H   0  0  0  0  0  0  0  0  0  0  0  0
    5.4180   -1.7489    0.1699 H   0  0  0  0  0  0  0  0  0  0  0  0
    4.3301   -2.5700    0.0000 H   0  0  0  0  0  0  0  0  0  0  0  0
    4.9812   -0.1682    0.8499 H   0  0  0  0  0  0  0  0  0  0  0  0
    5.0042   -0.3317   -0.8769 H   0  0  0  0  0  0  0  0  0  0  0  0
    3.6556    1.4817    0.7722 H   0  0  0  0  0  0  0  0  0  0  0  0
    4.3916    1.5808   -0.8301 H   0  0  0  0  0  0  0  0  0  0  0  0
    2.8749   -0.0485   -1.6348 H   0  0  0  0  0  0  0  0  0  0  0  0
    2.1851    0.0558    0.1229 H   0  0  0  0  0  0  0  0  0  0  0  0
    1.5921   -1.4062   -2.0072 H   0  0  0  0  0  0  0  0  0  0  0  0
    0.8679   -3.0121   -0.2813 H   0  0  0  0  0  0  0  0  0  0  0  0
   -1.5101   -2.9403   -1.1394 H   0  0  0  0  0  0  0  0  0  0  0  0
   -4.2738   -1.0527    1.0122 H   0  0  0  0  0  0  0  0  0  0  0  0
   -5.0261   -2.3600    0.0480 H   0  0  0  0  0  0  0  0  0  0  0  0
   -5.2567   -0.9650    0.0000 H   0  0  0  0  0  0  0  0  0  0  0  0
   -1.5396   -0.1244    1.5091 H   0  0  0  0  0  0  0  0  0  0  0  0
   -0.4725    1.7594    0.2339 H   0  0  0  0  0  0  0  0  0  0  0  0
  1  2  1  0  0  0  0
  1 17  1  0  0  0  0
  1 18  1  0  0  0  0
  1 19  1  0  0  0  0
  2  3  1  0  0  0  0
  2 20  1  0  0  0  0
  2 21  1  0  0  0  0
  3  4  1  0  0  0  0
  3 22  1  0  0  0  0
  3 23  1  0  0  0  0
  4  5  1  0  0  0  0
  4 24  1  0  0  0  0
  4 25  1  0  0  0  0
  5  6  1  0  0  0  0
  6 16  2  0  0  0  0
  6  7  1  0  0  0  0
  7  8  2  0  0  0  0
  7 26  1  0  0  0  0
  8  9  1  0  0  0  0
  8 27  1  0  0  0  0
  9 10  1  0  0  0  0
  9 15  2  0  0  0  0
 10 11  1  0  0  0  0
 10 28  1  0  0  0  0
 11 12  2  0  0  0  0
 11 13  1  0  0  0  0
 13 14  1  0  0  0  0
 14 29  1  0  0  0  0
 14 30  1  0  0  0  0
 14 31  1  0  0  0  0
 15 16  1  0  0  0  0
 15 32  1  0  0  0  0
 16 33  1  0  0  0  0
M  END
$$$$
