
 OpenBabel03202621372D

 17 17  0  0  0  0  0  0  0  0999 V2000
   -2.2132   -2.0377    0.0835 O   0  0  0  0  0  0  0  0  0  0  0  0
   -1.0676   -2.0771   -0.3381 C   0  0  0  0  0  0  0  0  0  0  0  0
   -0.1744   -1.0507   -0.3068 N   0  0  0  0  0  0  0  0  0  0  0  0
   -0.2339    0.1675    0.4776 C   0  0  0  0  0  0  0  0  0  0  0  0
    1.3036    0.2711    0.3267 C   0  0  0  0  0  0  0  0  0  0  0  0
    2.0487    0.1913    1.5760 O   0  0  0  0  0  0  0  0  0  0  0  0
    1.7379    1.4922   -0.4802 C   0  0  0  0  0  0  0  0  0  0  0  0
    1.1000    2.5940    0.0002 F   0  0  0  0  0  0  0  0  0  0  0  0
    1.2571   -1.0448   -0.4946 C   0  0  0  0  0  0  0  0  0  0  0  0
   -0.6440   -2.9856   -0.8023 H   0  0  0  0  0  0  0  0  0  0  0  0
   -0.5885    0.0073    1.5004 H   0  0  0  0  0  0  0  0  0  0  0  0
   -0.8278    0.9505   -0.0013 H   0  0  0  0  0  0  0  0  0  0  0  0
    2.9766    0.0433    1.3264 H   0  0  0  0  0  0  0  0  0  0  0  0
    2.8147    1.6685   -0.3928 H   0  0  0  0  0  0  0  0  0  0  0  0
    1.4885    1.4033   -1.5426 H   0  0  0  0  0  0  0  0  0  0  0  0
    1.7575   -1.9019   -0.0345 H   0  0  0  0  0  0  0  0  0  0  0  0
    1.5473   -0.9732   -1.5473 H   0  0  0  0  0  0  0  0  0  0  0  0
  1  2  2  0  0  0  0
  2  3  1  0  0  0  0
  2 10  1  0  0  0  0
  3  9  1  0  0  0  0
  3  4  1  0  0  0  0
  4  5  1  0  0  0  0
  4 11  1  0  0  0  0
  4 12  1  0  0  0  0
  5  6  1  0  0  0  0
  5  7  1  0  0  0  0
  5  9  1  0  0  0  0
  6 13  1  0  0  0  0
  7  8  1  0  0  0  0
  7 14  1  0  0  0  0
  7 15  1  0  0  0  0
  9 16  1  0  0  0  0
  9 17  1  0  0  0  0
M  END
$$$$
