
 OpenBabel03202621342D

 29 29  0  0  1  0  0  0  0  0999 V2000
   -0.8660   -3.5000    0.0000 C   0  0  0  0  0  0  0  0  0  0  0  0
    0.0000   -3.0000    0.0000 S   0  0  0  0  0  0  0  0  0  0  0  0
   -0.0200   -2.4161   -1.6590 C   0  0  0  0  0  0  0  0  0  0  0  0
    0.6538   -2.8807   -2.5538 O   0  0  0  0  0  0  0  0  0  0  0  0
   -0.9410   -1.4152   -1.8259 N   0  0  0  0  0  0  0  0  0  0  0  0
   -1.3267   -0.6344   -0.6645 C   0  0  1  0  0  0  0  0  0  0  0  0
   -2.5925    0.1540   -0.8906 C   0  0  0  0  0  0  0  0  0  0  0  0
   -2.7600    0.9950    0.3420 C   0  0  0  0  0  0  0  0  0  0  0  0
   -1.4322    1.6611    0.6228 C   0  0  0  0  0  0  0  0  0  0  0  0
    0.0000    1.0000    0.0000 C   0  0  2  0  0  0  0  0  0  0  0  0
    0.8660    1.5000    0.0000 C   0  0  0  0  0  0  0  0  0  0  0  0
    0.0000    0.0000    0.0000 C   0  0  0  0  0  0  0  0  0  0  0  0
   -1.1362   -3.3765    1.0671 H   0  0  0  0  0  0  0  0  0  0  0  0
   -0.4756   -4.5312   -0.1207 H   0  0  0  0  0  0  0  0  0  0  0  0
   -1.7926   -4.0350    0.0000 H   0  0  0  0  0  0  0  0  0  0  0  0
   -0.9725   -1.0042   -2.7470 H   0  0  0  0  0  0  0  0  0  0  0  0
   -1.7175   -1.3107    0.1011 H   0  0  0  0  0  0  0  0  0  0  0  0
   -3.4526   -0.5154   -0.9887 H   0  0  0  0  0  0  0  0  0  0  0  0
   -2.5539    0.7575   -1.8084 H   0  0  0  0  0  0  0  0  0  0  0  0
   -3.5530    1.7291    0.1983 H   0  0  0  0  0  0  0  0  0  0  0  0
   -3.0536    0.3861    1.2133 H   0  0  0  0  0  0  0  0  0  0  0  0
   -1.6050    2.6471    0.1248 H   0  0  0  0  0  0  0  0  0  0  0  0
   -1.3161    1.8897    1.6901 H   0  0  0  0  0  0  0  0  0  0  0  0
    0.0000    2.0700    0.0000 H   0  0  0  0  0  0  0  0  0  0  0  0
    1.4202    1.1247    0.9247 H   0  0  0  0  0  0  0  0  0  0  0  0
    1.3215    1.2603   -1.0204 H   0  0  0  0  0  0  0  0  0  0  0  0
    1.7926    2.0350    0.0000 H   0  0  0  0  0  0  0  0  0  0  0  0
    0.8493   -0.5509   -0.4587 H   0  0  0  0  0  0  0  0  0  0  0  0
    0.0027   -0.4453    1.0192 H   0  0  0  0  0  0  0  0  0  0  0  0
  1  2  1  0  0  0  0
  1 13  1  0  0  0  0
  1 14  1  0  0  0  0
  1 15  1  0  0  0  0
  2  3  1  0  0  0  0
  3  4  2  0  0  0  0
  3  5  1  0  0  0  0
  5 16  1  0  0  0  0
  6  5  1  0  0  0  0
  6  7  1  0  0  0  0
  6 12  1  0  0  0  0
  6 17  1  6  0  0  0
  7  8  1  0  0  0  0
  7 18  1  0  0  0  0
  7 19  1  0  0  0  0
  8  9  1  0  0  0  0
  8 20  1  0  0  0  0
  8 21  1  0  0  0  0
  9 10  1  0  0  0  0
  9 22  1  0  0  0  0
  9 23  1  0  0  0  0
 10 11  1  0  0  0  0
 10 12  1  0  0  0  0
 10 24  1  1  0  0  0
 11 25  1  0  0  0  0
 11 26  1  0  0  0  0
 11 27  1  0  0  0  0
 12 28  1  0  0  0  0
 12 29  1  0  0  0  0
M  END
$$$$
