
 OpenBabel03202621342D

 17 16  0  0  0  0  0  0  0  0999 V2000
    6.9400   -0.9021   -0.1345 C   0  0  0  0  0  0  0  0  0  0  0  0
    6.8269    0.4335   -0.1746 C   0  0  0  0  0  0  0  0  0  0  0  0
    5.5808    1.2741   -0.0750 C   0  0  0  0  0  0  0  0  0  0  0  0
    4.3301    0.5000    0.0000 C   0  0  0  0  0  0  0  0  0  0  0  0
    3.4641    0.0000    0.0000 C   0  0  0  0  0  0  0  0  0  0  0  0
    2.5981   -0.5000    0.0000 C   0  0  0  0  0  0  0  0  0  0  0  0
    1.4578    0.3714    0.2511 O   0  0  0  0  0  0  0  0  0  0  0  0
    0.2304   -0.1643    0.0748 C   0  0  0  0  0  0  0  0  0  0  0  0
   -0.8111    0.4612    0.1897 O   0  0  0  0  0  0  0  0  0  0  0  0
    6.0842   -1.5576   -0.0144 H   0  0  0  0  0  0  0  0  0  0  0  0
    7.9132   -1.3758   -0.2215 H   0  0  0  0  0  0  0  0  0  0  0  0
    7.7434    1.0098   -0.2972 H   0  0  0  0  0  0  0  0  0  0  0  0
    5.6675    1.9275    0.8014 H   0  0  0  0  0  0  0  0  0  0  0  0
    5.5422    1.9287   -0.9557 H   0  0  0  0  0  0  0  0  0  0  0  0
    2.4861   -1.3012    0.7449 H   0  0  0  0  0  0  0  0  0  0  0  0
    2.3466   -1.0277   -0.9323 H   0  0  0  0  0  0  0  0  0  0  0  0
    0.2629   -1.2332   -0.1824 H   0  0  0  0  0  0  0  0  0  0  0  0
  1  2  2  0  0  0  0
  1 10  1  0  0  0  0
  1 11  1  0  0  0  0
  2  3  1  0  0  0  0
  2 12  1  0  0  0  0
  3  4  1  0  0  0  0
  3 13  1  0  0  0  0
  3 14  1  0  0  0  0
  4  5  3  0  0  0  0
  5  6  1  0  0  0  0
  6  7  1  0  0  0  0
  6 15  1  0  0  0  0
  6 16  1  0  0  0  0
  7  8  1  0  0  0  0
  8  9  2  0  0  0  0
  8 17  1  0  0  0  0
M  END
$$$$
