
 OpenBabel03202621342D

 35 36  0  0  0  0  0  0  0  0999 V2000
    1.7321   -1.0000    0.0000 C   0  0  0  0  0  0  0  0  0  0  0  0
    0.8660   -1.5000    0.0000 O   0  0  0  0  0  0  0  0  0  0  0  0
   -0.0955   -0.4937   -0.0378 C   0  0  0  0  0  0  0  0  0  0  0  0
   -1.0423   -0.4421    0.9838 C   0  0  0  0  0  0  0  0  0  0  0  0
   -1.9142    0.6466    1.0482 C   0  0  0  0  0  0  0  0  0  0  0  0
   -1.8591    1.6594    0.0721 C   0  0  0  0  0  0  0  0  0  0  0  0
   -2.9395    2.7021   -0.0384 C   0  0  0  0  0  0  0  0  0  0  0  0
   -3.4958    2.6950   -1.3856 N   0  0  0  0  0  0  0  0  0  0  0  0
   -4.0201    1.6336   -2.0686 C   0  0  0  0  0  0  0  0  0  0  0  0
   -4.2187    1.7578   -3.2812 O   0  0  0  0  0  0  0  0  0  0  0  0
   -4.3739    0.3504   -1.3565 C   0  0  0  0  0  0  0  0  0  0  0  0
   -5.5708    0.5640   -0.5963 N   0  0  0  0  0  0  0  0  0  0  0  0
   -6.8347    0.4885   -1.0648 C   0  0  0  0  0  0  0  0  0  0  0  0
   -7.6449    0.8364    0.0000 C   0  0  0  0  0  0  0  0  0  0  0  0
   -8.6394    0.7319    0.0000 C   0  0  0  0  0  0  0  0  0  0  0  0
   -6.8052    1.1477    1.0546 N   0  0  0  0  0  0  0  0  0  0  0  0
   -5.5495    0.9281    0.6910 N   0  0  0  0  0  0  0  0  0  0  0  0
   -0.8800    1.6127   -0.9277 C   0  0  0  0  0  0  0  0  0  0  0  0
   -0.0292    0.5271   -1.0070 C   0  0  0  0  0  0  0  0  0  0  0  0
    2.2535   -1.5437   -0.8173 H   0  0  0  0  0  0  0  0  0  0  0  0
    2.1585   -1.3741    0.9565 H   0  0  0  0  0  0  0  0  0  0  0  0
    2.6588   -0.4650    0.0000 H   0  0  0  0  0  0  0  0  0  0  0  0
   -1.0847   -1.2269    1.7337 H   0  0  0  0  0  0  0  0  0  0  0  0
   -2.6793    0.6683    1.8238 H   0  0  0  0  0  0  0  0  0  0  0  0
   -2.5151    3.6947    0.1379 H   0  0  0  0  0  0  0  0  0  0  0  0
   -3.7377    2.5522    0.6887 H   0  0  0  0  0  0  0  0  0  0  0  0
   -3.3012    3.4962   -1.9766 H   0  0  0  0  0  0  0  0  0  0  0  0
   -3.5969   -0.0503   -0.7165 H   0  0  0  0  0  0  0  0  0  0  0  0
   -4.5812   -0.4289   -2.1004 H   0  0  0  0  0  0  0  0  0  0  0  0
   -7.0598    0.1535   -2.0693 H   0  0  0  0  0  0  0  0  0  0  0  0
   -8.9256    1.7965    0.1705 H   0  0  0  0  0  0  0  0  0  0  0  0
   -8.7763    0.1461    0.9406 H   0  0  0  0  0  0  0  0  0  0  0  0
   -9.7035    0.6201    0.0000 H   0  0  0  0  0  0  0  0  0  0  0  0
   -0.8189    2.3919   -1.6843 H   0  0  0  0  0  0  0  0  0  0  0  0
    0.7070    0.4920   -1.8062 H   0  0  0  0  0  0  0  0  0  0  0  0
  1  2  1  0  0  0  0
  1 20  1  0  0  0  0
  1 21  1  0  0  0  0
  1 22  1  0  0  0  0
  2  3  1  0  0  0  0
  3 19  2  0  0  0  0
  3  4  1  0  0  0  0
  4  5  2  0  0  0  0
  4 23  1  0  0  0  0
  5  6  1  0  0  0  0
  5 24  1  0  0  0  0
  6  7  1  0  0  0  0
  6 18  2  0  0  0  0
  7  8  1  0  0  0  0
  7 25  1  0  0  0  0
  7 26  1  0  0  0  0
  8  9  1  0  0  0  0
  8 27  1  0  0  0  0
  9 10  2  0  0  0  0
  9 11  1  0  0  0  0
 11 12  1  0  0  0  0
 11 28  1  0  0  0  0
 11 29  1  0  0  0  0
 12 17  1  0  0  0  0
 12 13  1  0  0  0  0
 13 14  2  0  0  0  0
 13 30  1  0  0  0  0
 14 15  1  0  0  0  0
 14 16  1  0  0  0  0
 15 31  1  0  0  0  0
 15 32  1  0  0  0  0
 15 33  1  0  0  0  0
 16 17  2  0  0  0  0
 18 19  1  0  0  0  0
 18 34  1  0  0  0  0
 19 35  1  0  0  0  0
M  END
$$$$
