
 OpenBabel03202621332D

 23 23  0  0  1  0  0  0  0  0999 V2000
    1.4483   -1.6730    0.0000 C   0  0  0  0  0  0  0  0  0  0  0  0
    1.7071   -0.7071    0.0000 N   0  0  0  0  0  0  0  0  0  0  0  0
    0.7428    0.1491    0.7067 C   0  0  1  0  0  0  0  0  0  0  0  0
   -0.5994    0.3134   -0.0724 C   0  0  0  0  0  0  0  0  0  0  0  0
   -0.5746    1.7877    0.4403 C   0  0  2  0  0  0  0  0  0  0  0  0
   -1.2398    2.8707   -0.3851 C   0  0  0  0  0  0  0  0  0  0  0  0
   -2.6091    2.4892   -0.6134 O   0  0  0  0  0  0  0  0  0  0  0  0
   -3.5853    3.3570   -0.2651 C   0  0  0  0  0  0  0  0  0  0  0  0
   -4.7739    3.1535   -0.4496 O   0  0  0  0  0  0  0  0  0  0  0  0
    0.9822    1.6450    0.3564 C   0  0  0  0  0  0  0  0  0  0  0  0
    0.9041   -1.7142   -0.9691 H   0  0  0  0  0  0  0  0  0  0  0  0
    2.4380   -2.1442   -0.1977 H   0  0  0  0  0  0  0  0  0  0  0  0
    1.1714   -2.7065    0.0000 H   0  0  0  0  0  0  0  0  0  0  0  0
    2.6593   -0.4042    0.2059 H   0  0  0  0  0  0  0  0  0  0  0  0
    0.6379   -0.0416    1.7832 H   0  0  0  0  0  0  0  0  0  0  0  0
   -1.4330   -0.2968    0.2862 H   0  0  0  0  0  0  0  0  0  0  0  0
   -0.5402    0.2258   -1.1649 H   0  0  0  0  0  0  0  0  0  0  0  0
   -0.9288    1.8548    1.4806 H   0  0  0  0  0  0  0  0  0  0  0  0
   -0.7654    2.9779   -1.3655 H   0  0  0  0  0  0  0  0  0  0  0  0
   -1.1644    3.8347    0.1320 H   0  0  0  0  0  0  0  0  0  0  0  0
   -3.2031    4.2712    0.2127 H   0  0  0  0  0  0  0  0  0  0  0  0
    1.3904    1.8393   -0.6451 H   0  0  0  0  0  0  0  0  0  0  0  0
    1.5515    2.2260    1.0863 H   0  0  0  0  0  0  0  0  0  0  0  0
  1  2  1  0  0  0  0
  1 11  1  0  0  0  0
  1 12  1  0  0  0  0
  1 13  1  0  0  0  0
  2 14  1  0  0  0  0
  3  2  1  0  0  0  0
  3  4  1  0  0  0  0
  3 10  1  0  0  0  0
  3 15  1  6  0  0  0
  4  5  1  0  0  0  0
  4 16  1  0  0  0  0
  4 17  1  0  0  0  0
  5  6  1  0  0  0  0
  5 10  1  0  0  0  0
  5 18  1  1  0  0  0
  6  7  1  0  0  0  0
  6 19  1  0  0  0  0
  6 20  1  0  0  0  0
  7  8  1  0  0  0  0
  8  9  2  0  0  0  0
  8 21  1  0  0  0  0
 10 22  1  0  0  0  0
 10 23  1  0  0  0  0
M  END
$$$$
