
 OpenBabel03202621372D

 27 27  0  0  0  0  0  0  0  0999 V2000
    4.3301   -1.5000    0.0000 C   0  0  0  0  0  0  0  0  0  0  0  0
    4.3301   -0.5000    0.0000 S   0  0  0  0  0  0  0  0  0  0  0  0
    3.4108    0.7412   -0.6950 C   0  0  0  0  0  0  0  0  0  0  0  0
    3.9225    2.3312   -0.7130 S   0  0  0  0  0  0  0  0  0  0  0  0
    2.1711    0.3312   -1.0870 N   0  0  0  0  0  0  0  0  0  0  0  0
    1.0464    0.9023   -0.3730 C   0  0  0  0  0  0  0  0  0  0  0  0
   -0.1075   -0.0590   -0.1850 C   0  0  0  0  0  0  0  0  0  0  0  0
    0.1241   -1.4432   -0.0490 C   0  0  0  0  0  0  0  0  0  0  0  0
   -0.9257   -2.3402    0.0764 C   0  0  0  0  0  0  0  0  0  0  0  0
   -2.2312   -1.8651    0.1098 C   0  0  0  0  0  0  0  0  0  0  0  0
   -2.4765   -0.4910    0.0591 C   0  0  0  0  0  0  0  0  0  0  0  0
   -1.4265    0.4330   -0.0540 C   0  0  0  0  0  0  0  0  0  0  0  0
   -1.6751    1.9375   -0.0422 C   0  0  0  0  0  0  0  0  0  0  0  0
   -3.0117    2.3755    0.3832 C   0  0  0  0  0  0  0  0  0  0  0  0
   -4.0616    2.7303    0.7177 N   0  0  0  0  0  0  0  0  0  0  0  0
    3.5758   -1.6781    0.7907 H   0  0  0  0  0  0  0  0  0  0  0  0
    5.3322   -1.6718    0.4360 H   0  0  0  0  0  0  0  0  0  0  0  0
    4.3301   -2.5700    0.0000 H   0  0  0  0  0  0  0  0  0  0  0  0
    2.1173   -0.6596   -1.2509 H   0  0  0  0  0  0  0  0  0  0  0  0
    1.3653    1.2403    0.6224 H   0  0  0  0  0  0  0  0  0  0  0  0
    0.7459    1.7762   -0.9564 H   0  0  0  0  0  0  0  0  0  0  0  0
    1.1296   -1.8570   -0.0309 H   0  0  0  0  0  0  0  0  0  0  0  0
   -0.7295   -3.4054    0.1499 H   0  0  0  0  0  0  0  0  0  0  0  0
   -3.0589   -2.5639    0.1994 H   0  0  0  0  0  0  0  0  0  0  0  0
   -3.5149   -0.1673    0.1224 H   0  0  0  0  0  0  0  0  0  0  0  0
   -0.9560    2.3990    0.6479 H   0  0  0  0  0  0  0  0  0  0  0  0
   -1.4742    2.3318   -1.0444 H   0  0  0  0  0  0  0  0  0  0  0  0
  1  2  1  0  0  0  0
  1 16  1  0  0  0  0
  1 17  1  0  0  0  0
  1 18  1  0  0  0  0
  2  3  1  0  0  0  0
  3  4  2  0  0  0  0
  3  5  1  0  0  0  0
  5  6  1  0  0  0  0
  5 19  1  0  0  0  0
  6  7  1  0  0  0  0
  6 20  1  0  0  0  0
  6 21  1  0  0  0  0
  7 12  2  0  0  0  0
  7  8  1  0  0  0  0
  8  9  2  0  0  0  0
  8 22  1  0  0  0  0
  9 10  1  0  0  0  0
  9 23  1  0  0  0  0
 10 11  2  0  0  0  0
 10 24  1  0  0  0  0
 11 12  1  0  0  0  0
 11 25  1  0  0  0  0
 12 13  1  0  0  0  0
 13 14  1  0  0  0  0
 13 26  1  0  0  0  0
 13 27  1  0  0  0  0
 14 15  3  0  0  0  0
M  END
$$$$
