
 OpenBabel03202621362D

 16 15  0  0  1  0  0  0  0  0999 V2000
    3.6157    0.9444   -0.7328 O   0  0  0  0  0  0  0  0  0  0  0  0
    3.2855    1.7849    0.0903 C   0  0  0  0  0  0  0  0  0  0  0  0
    2.0258    2.1446    0.4147 O   0  0  0  0  0  0  0  0  0  0  0  0
    0.9096    1.4962   -0.2691 C   0  0  1  0  0  0  0  0  0  0  0  0
   -0.3047    2.3490    0.1499 C   0  0  0  0  0  0  0  0  0  0  0  0
   -1.5632    1.8245   -0.2365 O   0  0  0  0  0  0  0  0  0  0  0  0
    0.8446    0.0039    0.1175 C   0  0  0  0  0  0  0  0  0  0  0  0
   -0.5483   -0.9682   -0.5336 S   0  0  0  0  0  0  0  0  0  0  0  0
    3.9931    2.3673    0.6987 H   0  0  0  0  0  0  0  0  0  0  0  0
    1.0520    1.5916   -1.3545 H   0  0  0  0  0  0  0  0  0  0  0  0
   -0.2052    3.3430   -0.3028 H   0  0  0  0  0  0  0  0  0  0  0  0
   -0.3085    2.5007    1.2362 H   0  0  0  0  0  0  0  0  0  0  0  0
   -2.2355    2.4915   -0.0088 H   0  0  0  0  0  0  0  0  0  0  0  0
    1.7408   -0.5095   -0.2425 H   0  0  0  0  0  0  0  0  0  0  0  0
    0.8628   -0.0959    1.2071 H   0  0  0  0  0  0  0  0  0  0  0  0
   -1.5070   -0.1025   -0.1544 H   0  0  0  0  0  0  0  0  0  0  0  0
  1  2  2  0  0  0  0
  2  3  1  0  0  0  0
  2  9  1  0  0  0  0
  3  4  1  0  0  0  0
  4  5  1  0  0  0  0
  4  7  1  0  0  0  0
  4 10  1  1  0  0  0
  5  6  1  0  0  0  0
  5 11  1  0  0  0  0
  5 12  1  0  0  0  0
  6 13  1  0  0  0  0
  7  8  1  0  0  0  0
  7 14  1  0  0  0  0
  7 15  1  0  0  0  0
  8 16  1  0  0  0  0
M  END
$$$$
