
 OpenBabel03202621302D

 21 21  0  0  1  0  0  0  0  0999 V2000
    0.8090    3.5878    0.0000 C   0  0  0  0  0  0  0  0  0  0  0  0
   -0.0570    3.0878    0.0000 S   0  0  0  0  0  0  0  0  0  0  0  0
    0.0551    1.4012   -0.4294 C   0  0  0  0  0  0  0  0  0  0  0  0
   -0.8780    0.8544   -1.0032 O   0  0  0  0  0  0  0  0  0  0  0  0
    1.3134    0.6639   -0.0067 C   0  0  0  0  0  0  0  0  0  0  0  0
    1.3227   -0.8111   -0.4210 C   0  0  1  0  0  0  0  0  0  0  0  0
    2.5662   -1.5239    0.0656 C   0  0  0  0  0  0  0  0  0  0  0  0
    2.2129   -2.8990    0.1856 O   0  0  0  0  0  0  0  0  0  0  0  0
    0.8595   -3.0074    0.3147 C   0  0  0  0  0  0  0  0  0  0  0  0
    0.2780   -4.0541    0.5576 O   0  0  0  0  0  0  0  0  0  0  0  0
    0.2109   -1.6651    0.1649 C   0  0  0  0  0  0  0  0  0  0  0  0
    1.1231    3.4055    1.0473 H   0  0  0  0  0  0  0  0  0  0  0  0
    0.4112    4.6189   -0.0554 H   0  0  0  0  0  0  0  0  0  0  0  0
    1.7356    4.1228    0.0000 H   0  0  0  0  0  0  0  0  0  0  0  0
    2.1751    1.1612   -0.4680 H   0  0  0  0  0  0  0  0  0  0  0  0
    1.4112    0.7458    1.0824 H   0  0  0  0  0  0  0  0  0  0  0  0
    1.2730   -0.8863   -1.5164 H   0  0  0  0  0  0  0  0  0  0  0  0
    2.9094   -1.1707    1.0451 H   0  0  0  0  0  0  0  0  0  0  0  0
    3.3925   -1.4243   -0.6464 H   0  0  0  0  0  0  0  0  0  0  0  0
   -0.1214   -1.3128    1.1445 H   0  0  0  0  0  0  0  0  0  0  0  0
   -0.6361   -1.7424   -0.5251 H   0  0  0  0  0  0  0  0  0  0  0  0
  1  2  1  0  0  0  0
  1 12  1  0  0  0  0
  1 13  1  0  0  0  0
  1 14  1  0  0  0  0
  2  3  1  0  0  0  0
  3  4  2  0  0  0  0
  3  5  1  0  0  0  0
  5 15  1  0  0  0  0
  5 16  1  0  0  0  0
  6  5  1  0  0  0  0
  6  7  1  0  0  0  0
  6 11  1  0  0  0  0
  6 17  1  6  0  0  0
  7  8  1  0  0  0  0
  7 18  1  0  0  0  0
  7 19  1  0  0  0  0
  8  9  1  0  0  0  0
  9 10  2  0  0  0  0
  9 11  1  0  0  0  0
 11 20  1  0  0  0  0
 11 21  1  0  0  0  0
M  END
$$$$
