
 OpenBabel03202621402D

 17 17  0  0  0  0  0  0  0  0999 V2000
    0.8090    3.5878    0.0000 C   0  0  0  0  0  0  0  0  0  0  0  0
   -0.0570    3.0878    0.0000 S   0  0  0  0  0  0  0  0  0  0  0  0
   -0.1129    1.3490    0.0578 C   0  0  0  0  0  0  0  0  0  0  0  0
   -1.2013    0.8208    0.2418 O   0  0  0  0  0  0  0  0  0  0  0  0
    1.1855    0.5998   -0.1199 C   0  0  0  0  0  0  0  0  0  0  0  0
    1.1197   -0.8556   -0.1200 N   0  0  0  0  0  0  0  0  0  0  0  0
    2.2261   -1.6590   -0.1046 C   0  0  0  0  0  0  0  0  0  0  0  0
    1.8627   -2.9167   -0.1354 N   0  0  0  0  0  0  0  0  0  0  0  0
    0.4907   -2.9476   -0.1796 N   0  0  0  0  0  0  0  0  0  0  0  0
    0.0603   -1.7057   -0.1754 C   0  0  0  0  0  0  0  0  0  0  0  0
    1.1367    3.3946    1.0416 H   0  0  0  0  0  0  0  0  0  0  0  0
    0.4106    4.6194   -0.0380 H   0  0  0  0  0  0  0  0  0  0  0  0
    1.7356    4.1228    0.0000 H   0  0  0  0  0  0  0  0  0  0  0  0
    1.6375    0.8821   -1.0772 H   0  0  0  0  0  0  0  0  0  0  0  0
    1.8570    0.8712    0.7028 H   0  0  0  0  0  0  0  0  0  0  0  0
    3.2434   -1.2937   -0.0749 H   0  0  0  0  0  0  0  0  0  0  0  0
   -0.9826   -1.4198   -0.2082 H   0  0  0  0  0  0  0  0  0  0  0  0
  1  2  1  0  0  0  0
  1 11  1  0  0  0  0
  1 12  1  0  0  0  0
  1 13  1  0  0  0  0
  2  3  1  0  0  0  0
  3  4  2  0  0  0  0
  3  5  1  0  0  0  0
  5  6  1  0  0  0  0
  5 14  1  0  0  0  0
  5 15  1  0  0  0  0
  6 10  1  0  0  0  0
  6  7  1  0  0  0  0
  7  8  2  0  0  0  0
  7 16  1  0  0  0  0
  8  9  1  0  0  0  0
  9 10  2  0  0  0  0
 10 17  1  0  0  0  0
M  END
$$$$
