
 OpenBabel03202621312D

 20 19  0  0  0  0  0  0  0  0999 V2000
    2.5981   -3.5000    0.0000 C   0  0  0  0  0  0  0  0  0  0  0  0
    2.5981   -2.5000    0.0000 S   0  0  0  0  0  0  0  0  0  0  0  0
    2.1546   -1.5431   -1.3250 C   0  0  0  0  0  0  0  0  0  0  0  0
    2.8718   -0.1407   -1.7727 S   0  0  0  0  0  0  0  0  0  0  0  0
    0.8344   -1.9751   -1.5015 N   0  0  0  0  0  0  0  0  0  0  0  0
    0.0000   -2.0000    0.0000 C   0  0  0  0  0  0  0  0  0  0  0  0
   -1.0000   -2.0000    0.0000 C   0  0  0  0  0  0  0  0  0  0  0  0
   -0.5000   -2.8660    0.0000 C   0  0  0  0  0  0  0  0  0  0  0  0
    0.0000   -1.0000    0.0000 C   0  0  0  0  0  0  0  0  0  0  0  0
    0.0000    0.0000    0.0000 N   0  0  0  0  0  0  0  0  0  0  0  0
    2.0547   -3.6803    0.9460 H   0  0  0  0  0  0  0  0  0  0  0  0
    3.6692   -3.6703    0.2248 H   0  0  0  0  0  0  0  0  0  0  0  0
    2.5981   -4.5700    0.0000 H   0  0  0  0  0  0  0  0  0  0  0  0
    0.7352   -2.7525   -2.1017 H   0  0  0  0  0  0  0  0  0  0  0  0
   -1.4492   -1.5891    1.1036 H   0  0  0  0  0  0  0  0  0  0  0  0
   -1.4797   -1.5627   -1.0763 H   0  0  0  0  0  0  0  0  0  0  0  0
   -2.0700   -2.0000    0.0000 H   0  0  0  0  0  0  0  0  0  0  0  0
   -0.0932   -3.3389    1.0193 H   0  0  0  0  0  0  0  0  0  0  0  0
    0.0643   -3.6103   -0.6925 H   0  0  0  0  0  0  0  0  0  0  0  0
   -1.0350   -3.7926    0.0000 H   0  0  0  0  0  0  0  0  0  0  0  0
  1  2  1  0  0  0  0
  1 11  1  0  0  0  0
  1 12  1  0  0  0  0
  1 13  1  0  0  0  0
  2  3  1  0  0  0  0
  3  4  2  0  0  0  0
  3  5  1  0  0  0  0
  5  6  1  0  0  0  0
  5 14  1  0  0  0  0
  6  7  1  0  0  0  0
  6  8  1  0  0  0  0
  6  9  1  0  0  0  0
  7 15  1  0  0  0  0
  7 16  1  0  0  0  0
  7 17  1  0  0  0  0
  8 18  1  0  0  0  0
  8 19  1  0  0  0  0
  8 20  1  0  0  0  0
  9 10  3  0  0  0  0
M  END
$$$$
