
 OpenBabel03202621332D

 42 41  0  0  1  0  0  0  0  0999 V2000
   -1.0000    0.7321    0.0000 C   0  0  0  0  0  0  0  0  0  0  0  0
   -1.5000   -0.1340    0.0000 C   0  0  0  0  0  0  0  0  0  0  0  0
   -1.0000   -1.0000    0.0000 O   0  0  0  0  0  0  0  0  0  0  0  0
    0.0000   -1.0000    0.0000 Si  0  0  0  0  0  0  0  0  0  0  0  0
    0.0000   -2.0000    0.0000 C   0  0  0  0  0  0  0  0  0  0  0  0
    1.0000   -1.0000    0.0000 C   0  0  0  0  0  0  0  0  0  0  0  0
    0.0000    0.0000    0.0000 C   0  0  0  0  0  0  0  0  0  0  0  0
    1.2517    1.3014    0.2426 C   0  0  0  0  0  0  0  0  0  0  0  0
    2.3294    0.8222   -0.6540 C   0  0  0  0  0  0  0  0  0  0  0  0
    3.0403   -0.2425   -1.3748 O   0  0  0  0  0  0  0  0  0  0  0  0
    4.1837   -0.9793   -0.6662 C   0  0  0  0  0  0  0  0  0  0  0  0
    5.0355   -0.1507    0.3052 C   0  0  2  0  0  0  0  0  0  0  0  0
    6.6212   -0.4734    0.2484 C   0  0  0  0  0  0  0  0  0  0  0  0
    7.5787    0.5464   -0.0641 O   0  0  0  0  0  0  0  0  0  0  0  0
    4.3301    1.5000    0.0000 S   0  0  0  0  0  0  0  0  0  0  0  0
    5.1962    2.0000    0.0000 C   0  0  0  0  0  0  0  0  0  0  0  0
   -1.5472    1.3281    0.8444 H   0  0  0  0  0  0  0  0  0  0  0  0
   -1.5094    1.3062   -0.8856 H   0  0  0  0  0  0  0  0  0  0  0  0
   -0.4650    1.6588    0.0000 H   0  0  0  0  0  0  0  0  0  0  0  0
   -2.3245   -0.1856    0.7945 H   0  0  0  0  0  0  0  0  0  0  0  0
   -2.3289   -0.1837   -0.7894 H   0  0  0  0  0  0  0  0  0  0  0  0
   -0.3609   -2.4770    1.0078 H   0  0  0  0  0  0  0  0  0  0  0  0
   -0.3534   -2.4764   -1.0117 H   0  0  0  0  0  0  0  0  0  0  0  0
    0.0000   -3.0700    0.0000 H   0  0  0  0  0  0  0  0  0  0  0  0
    1.4914   -1.3613    1.0191 H   0  0  0  0  0  0  0  0  0  0  0  0
    1.4439   -1.4548   -1.0064 H   0  0  0  0  0  0  0  0  0  0  0  0
    2.0700   -1.0000    0.0000 H   0  0  0  0  0  0  0  0  0  0  0  0
    0.2981    0.4454   -1.1865 H   0  0  0  0  0  0  0  0  0  0  0  0
    0.1344    0.2668    1.2918 H   0  0  0  0  0  0  0  0  0  0  0  0
    1.4264    1.4875    1.3438 H   0  0  0  0  0  0  0  0  0  0  0  0
    1.0246    2.3204   -0.0848 H   0  0  0  0  0  0  0  0  0  0  0  0
    2.6708    0.5044    0.4242 H   0  0  0  0  0  0  0  0  0  0  0  0
    2.4710    1.7056   -1.2236 H   0  0  0  0  0  0  0  0  0  0  0  0
    3.8276   -1.8157   -0.1427 H   0  0  0  0  0  0  0  0  0  0  0  0
    4.8071   -1.3444   -1.4590 H   0  0  0  0  0  0  0  0  0  0  0  0
    4.7656   -0.3893    1.3550 H   0  0  0  0  0  0  0  0  0  0  0  0
    6.7575   -1.2900   -0.5277 H   0  0  0  0  0  0  0  0  0  0  0  0
    6.9084   -0.9099    1.1883 H   0  0  0  0  0  0  0  0  0  0  0  0
    8.4373    0.1562   -0.0664 H   0  0  0  0  0  0  0  0  0  0  0  0
    5.4506    1.9186   -1.0787 H   0  0  0  0  0  0  0  0  0  0  0  0
    4.8004    3.0237    0.1467 H   0  0  0  0  0  0  0  0  0  0  0  0
    6.1229    2.5350    0.0000 H   0  0  0  0  0  0  0  0  0  0  0  0
  1  2  1  0  0  0  0
  1 17  1  0  0  0  0
  1 18  1  0  0  0  0
  1 19  1  0  0  0  0
  2  3  1  0  0  0  0
  2 20  1  0  0  0  0
  2 21  1  0  0  0  0
  3  4  1  0  0  0  0
  4  5  1  0  0  0  0
  4  6  1  0  0  0  0
  4  7  1  0  0  0  0
  5 22  1  0  0  0  0
  5 23  1  0  0  0  0
  5 24  1  0  0  0  0
  6 25  1  0  0  0  0
  6 26  1  0  0  0  0
  6 27  1  0  0  0  0
  7  8  1  0  0  0  0
  7 28  1  0  0  0  0
  7 29  1  0  0  0  0
  8  9  1  0  0  0  0
  8 30  1  0  0  0  0
  8 31  1  0  0  0  0
  9 10  1  0  0  0  0
  9 32  1  0  0  0  0
  9 33  1  0  0  0  0
 10 11  1  0  0  0  0
 11 34  1  0  0  0  0
 11 35  1  0  0  0  0
 12 11  1  0  0  0  0
 12 13  1  0  0  0  0
 12 15  1  0  0  0  0
 12 36  1  6  0  0  0
 13 14  1  0  0  0  0
 13 37  1  0  0  0  0
 13 38  1  0  0  0  0
 14 39  1  0  0  0  0
 15 16  1  0  0  0  0
 16 40  1  0  0  0  0
 16 41  1  0  0  0  0
 16 42  1  0  0  0  0
M  END
$$$$
