
 OpenBabel03202621302D

 26 26  0  0  1  0  0  0  0  0999 V2000
    2.5981   -1.5000    0.0000 C   0  0  0  0  0  0  0  0  0  0  0  0
    2.5981   -0.5000    0.0000 C   0  0  1  0  0  0  0  0  0  0  0  0
    3.7994    0.3461    0.5375 C   0  0  0  0  0  0  0  0  0  0  0  0
    3.5701    2.1339    0.1779 S   0  0  0  0  0  0  0  0  0  0  0  0
    5.2122    2.7039    0.3990 C   0  0  0  0  0  0  0  0  0  0  0  0
    6.1591    1.9566    0.6052 O   0  0  0  0  0  0  0  0  0  0  0  0
    1.3922   -0.0185    0.7467 O   0  0  0  0  0  0  0  0  0  0  0  0
    0.1300   -0.4300    0.3613 C   0  0  0  0  0  0  0  0  0  0  0  0
   -0.2266   -1.7314    0.0162 C   0  0  0  0  0  0  0  0  0  0  0  0
   -1.5529   -2.0086   -0.2686 C   0  0  0  0  0  0  0  0  0  0  0  0
   -2.5361   -1.0935   -0.2171 N   0  0  0  0  0  0  0  0  0  0  0  0
   -2.1906    0.1516    0.1443 C   0  0  0  0  0  0  0  0  0  0  0  0
   -3.2382    1.0609    0.2419 N   0  0  0  0  0  0  0  0  0  0  0  0
   -0.8831    0.5236    0.4470 C   0  0  0  0  0  0  0  0  0  0  0  0
    2.8502   -1.7070    1.0701 H   0  0  0  0  0  0  0  0  0  0  0  0
    3.4955   -1.6958   -0.6354 H   0  0  0  0  0  0  0  0  0  0  0  0
    2.5981   -2.5700    0.0000 H   0  0  0  0  0  0  0  0  0  0  0  0
    2.4091   -0.0793   -1.0029 H   0  0  0  0  0  0  0  0  0  0  0  0
    3.9019    0.2428    1.6241 H   0  0  0  0  0  0  0  0  0  0  0  0
    4.7264    0.0118    0.0580 H   0  0  0  0  0  0  0  0  0  0  0  0
    5.3401    3.7959    0.3223 H   0  0  0  0  0  0  0  0  0  0  0  0
    0.4623   -2.5615    0.0000 H   0  0  0  0  0  0  0  0  0  0  0  0
   -1.8671   -3.0139   -0.5352 H   0  0  0  0  0  0  0  0  0  0  0  0
   -3.0696    1.8809   -0.3283 H   0  0  0  0  0  0  0  0  0  0  0  0
   -4.0741    0.5629   -0.0561 H   0  0  0  0  0  0  0  0  0  0  0  0
   -0.6584    1.5366    0.7631 H   0  0  0  0  0  0  0  0  0  0  0  0
  1 15  1  0  0  0  0
  1 16  1  0  0  0  0
  1 17  1  0  0  0  0
  2  1  1  0  0  0  0
  2  3  1  0  0  0  0
  2  7  1  0  0  0  0
  2 18  1  1  0  0  0
  3  4  1  0  0  0  0
  3 19  1  0  0  0  0
  3 20  1  0  0  0  0
  4  5  1  0  0  0  0
  5  6  2  0  0  0  0
  5 21  1  0  0  0  0
  7  8  1  0  0  0  0
  8 14  2  0  0  0  0
  8  9  1  0  0  0  0
  9 10  2  0  0  0  0
  9 22  1  0  0  0  0
 10 11  1  0  0  0  0
 10 23  1  0  0  0  0
 11 12  2  0  0  0  0
 12 13  1  0  0  0  0
 12 14  1  0  0  0  0
 13 24  1  0  0  0  0
 13 25  1  0  0  0  0
 14 26  1  0  0  0  0
M  END
$$$$
