
 OpenBabel03202621342D

 18 18  0  0  1  0  0  0  0  0999 V2000
    1.8660    0.5000    0.0000 C   0  0  0  0  0  0  0  0  0  0  0  0
    1.0000    0.0000    0.0000 C   0  0  2  0  0  0  0  0  0  0  0  0
    0.0924   -0.6187   -1.0749 C   0  0  0  0  0  0  0  0  0  0  0  0
   -0.4659    0.2088    0.1082 C   0  0  2  0  0  0  0  0  0  0  0  0
   -1.4307    1.2572   -0.3376 C   0  0  0  0  0  0  0  0  0  0  0  0
   -2.5965    0.5124   -0.7691 O   0  0  0  0  0  0  0  0  0  0  0  0
   -3.8155    0.9719   -0.4321 C   0  0  0  0  0  0  0  0  0  0  0  0
   -4.0709    2.0326    0.1213 O   0  0  0  0  0  0  0  0  0  0  0  0
    2.4689   -0.1668   -0.6641 H   0  0  0  0  0  0  0  0  0  0  0  0
    1.5636    1.3902   -0.5976 H   0  0  0  0  0  0  0  0  0  0  0  0
    2.7926    1.0350    0.0000 H   0  0  0  0  0  0  0  0  0  0  0  0
    1.2480   -0.7752    0.7600 H   0  0  0  0  0  0  0  0  0  0  0  0
    0.6874   -1.5396   -1.2874 H   0  0  0  0  0  0  0  0  0  0  0  0
   -0.7158   -1.3953   -1.0974 H   0  0  0  0  0  0  0  0  0  0  0  0
   -0.9167   -0.3171    0.9553 H   0  0  0  0  0  0  0  0  0  0  0  0
   -1.0619    1.8267   -1.1928 H   0  0  0  0  0  0  0  0  0  0  0  0
   -1.6656    1.9370    0.4888 H   0  0  0  0  0  0  0  0  0  0  0  0
   -4.5752    0.2292   -0.7246 H   0  0  0  0  0  0  0  0  0  0  0  0
  1  9  1  0  0  0  0
  1 10  1  0  0  0  0
  1 11  1  0  0  0  0
  2  1  1  0  0  0  0
  2  3  1  0  0  0  0
  2  4  1  0  0  0  0
  2 12  1  1  0  0  0
  3  4  1  0  0  0  0
  3 13  1  0  0  0  0
  3 14  1  0  0  0  0
  4  5  1  0  0  0  0
  4 15  1  1  0  0  0
  5  6  1  0  0  0  0
  5 16  1  0  0  0  0
  5 17  1  0  0  0  0
  6  7  1  0  0  0  0
  7  8  2  0  0  0  0
  7 18  1  0  0  0  0
M  END
$$$$
