
 OpenBabel03202621302D

 17 17  0  0  0  0  0  0  0  0999 V2000
   -2.5899   -2.4127    1.2790 O   0  0  0  0  0  0  0  0  0  0  0  0
   -2.3327   -2.7494    0.1295 C   0  0  0  0  0  0  0  0  0  0  0  0
   -0.8572   -2.2941   -0.7003 S   0  0  0  0  0  0  0  0  0  0  0  0
   -0.8439   -0.5406   -0.3866 C   0  0  0  0  0  0  0  0  0  0  0  0
   -2.0298    0.0843   -0.5967 N   0  0  0  0  0  0  0  0  0  0  0  0
   -2.0957    1.4172   -0.3968 C   0  0  0  0  0  0  0  0  0  0  0  0
   -1.0100    2.1861   -0.0268 C   0  0  0  0  0  0  0  0  0  0  0  0
    0.2078    1.5441    0.1543 C   0  0  0  0  0  0  0  0  0  0  0  0
    0.3098    0.1525   -0.0248 C   0  0  0  0  0  0  0  0  0  0  0  0
    1.6271   -0.5365    0.1558 C   0  0  0  0  0  0  0  0  0  0  0  0
    2.0841   -1.1203   -0.9872 F   0  0  0  0  0  0  0  0  0  0  0  0
    2.6236    0.3143    0.5417 F   0  0  0  0  0  0  0  0  0  0  0  0
    1.6058   -1.5126    1.1040 F   0  0  0  0  0  0  0  0  0  0  0  0
   -2.9972   -3.4201   -0.4395 H   0  0  0  0  0  0  0  0  0  0  0  0
   -3.0738    1.8652   -0.5489 H   0  0  0  0  0  0  0  0  0  0  0  0
   -1.1084    3.2572    0.1131 H   0  0  0  0  0  0  0  0  0  0  0  0
    1.0815    2.1299    0.4347 H   0  0  0  0  0  0  0  0  0  0  0  0
  1  2  2  0  0  0  0
  2  3  1  0  0  0  0
  2 14  1  0  0  0  0
  3  4  1  0  0  0  0
  4  9  2  0  0  0  0
  4  5  1  0  0  0  0
  5  6  2  0  0  0  0
  6  7  1  0  0  0  0
  6 15  1  0  0  0  0
  7  8  2  0  0  0  0
  7 16  1  0  0  0  0
  8  9  1  0  0  0  0
  8 17  1  0  0  0  0
  9 10  1  0  0  0  0
 10 11  1  0  0  0  0
 10 12  1  0  0  0  0
 10 13  1  0  0  0  0
M  END
$$$$
