
 OpenBabel03202621362D

 22 22  0  0  1  0  0  0  0  0999 V2000
    0.8090    1.5878    0.0000 C   0  0  0  0  0  0  0  0  0  0  0  0
    0.8090    0.5878    0.0000 C   0  0  2  0  0  0  0  0  0  0  0  0
    1.9647    0.1149    0.7041 C   0  0  0  0  0  0  0  0  0  0  0  0
    1.3090   -0.9511    0.0000 C   0  0  1  0  0  0  0  0  0  0  0  0
    1.8968   -1.7601    0.0000 C   0  0  0  0  0  0  0  0  0  0  0  0
   -0.0069   -1.2225    0.6570 N   0  0  0  0  0  0  0  0  0  0  0  0
   -0.8711   -2.2886    0.5219 C   0  0  0  0  0  0  0  0  0  0  0  0
   -2.0875   -2.2339    0.5722 O   0  0  0  0  0  0  0  0  0  0  0  0
   -0.5129    0.0651    0.6423 C   0  0  0  0  0  0  0  0  0  0  0  0
    1.7009    1.8467   -0.6478 H   0  0  0  0  0  0  0  0  0  0  0  0
   -0.1392    1.8694   -0.5510 H   0  0  0  0  0  0  0  0  0  0  0  0
    0.8090    2.6578    0.0000 H   0  0  0  0  0  0  0  0  0  0  0  0
    0.6871    0.4938   -1.1431 H   0  0  0  0  0  0  0  0  0  0  0  0
    1.9047    0.1324    1.8004 H   0  0  0  0  0  0  0  0  0  0  0  0
    2.9516    0.4356    0.3429 H   0  0  0  0  0  0  0  0  0  0  0  0
    1.0615   -0.9832   -1.1226 H   0  0  0  0  0  0  0  0  0  0  0  0
    1.3186   -2.5483   -0.5670 H   0  0  0  0  0  0  0  0  0  0  0  0
    2.7505   -1.4373   -0.6684 H   0  0  0  0  0  0  0  0  0  0  0  0
    2.5257   -2.6257    0.0000 H   0  0  0  0  0  0  0  0  0  0  0  0
   -0.3448   -3.2542    0.4170 H   0  0  0  0  0  0  0  0  0  0  0  0
   -0.7419    0.4263    1.6490 H   0  0  0  0  0  0  0  0  0  0  0  0
   -1.3809    0.1588   -0.0263 H   0  0  0  0  0  0  0  0  0  0  0  0
  1 10  1  0  0  0  0
  1 11  1  0  0  0  0
  1 12  1  0  0  0  0
  2  1  1  0  0  0  0
  2  3  1  0  0  0  0
  2  9  1  0  0  0  0
  2 13  1  1  0  0  0
  3  4  1  0  0  0  0
  3 14  1  0  0  0  0
  3 15  1  0  0  0  0
  4  5  1  0  0  0  0
  4  6  1  0  0  0  0
  4 16  1  6  0  0  0
  5 17  1  0  0  0  0
  5 18  1  0  0  0  0
  5 19  1  0  0  0  0
  6  7  1  0  0  0  0
  6  9  1  0  0  0  0
  7  8  2  0  0  0  0
  7 20  1  0  0  0  0
  9 21  1  0  0  0  0
  9 22  1  0  0  0  0
M  END
$$$$
