
 OpenBabel03202621282D

 36 38  0  0  1  0  0  0  0  0999 V2000
    0.7615    4.4945    0.0000 C   0  0  0  0  0  0  0  0  0  0  0  0
   -0.1045    3.9945    0.0000 C   0  0  0  0  0  0  0  0  0  0  0  0
   -0.9706    4.4945    0.0000 O   0  0  0  0  0  0  0  0  0  0  0  0
   -0.1045    2.9945    0.0000 C   0  0  0  0  0  0  0  0  0  0  0  0
   -0.9706    2.4945    0.0000 C   0  0  0  0  0  0  0  0  0  0  0  0
   -1.8366    2.9945    0.0000 O   0  0  0  0  0  0  0  0  0  0  0  0
   -0.9706    1.4945    0.0000 C   0  0  1  0  0  0  0  0  0  0  0  0
   -1.8366    0.9945    0.0000 C   0  0  0  0  0  0  0  0  0  0  0  0
   -1.8366   -0.0055    0.0000 O   0  0  0  0  0  0  0  0  0  0  0  0
   -2.7026    1.4945    0.0000 C   0  0  2  0  0  0  0  0  0  0  0  0
   -2.7026    2.4945    0.0000 C   0  0  0  0  0  0  0  0  0  0  0  0
   -3.5686    2.9945    0.0000 C   0  0  0  0  0  0  0  0  0  0  0  0
   -3.5686    3.9945    0.0000 O   0  0  0  0  0  0  0  0  0  0  0  0
   -3.5686    0.9945    0.0000 C   0  0  0  0  0  0  0  0  0  0  0  0
   -4.4347    1.4945    0.0000 O   0  0  0  0  0  0  0  0  0  0  0  0
   -3.5686   -0.0055    0.0000 C   0  0  0  0  0  0  0  0  0  0  0  0
   -2.7026   -0.5055    0.0000 C   0  0  0  0  0  0  0  0  0  0  0  0
   -2.7026   -1.5055    0.0000 C   0  0  0  0  0  0  0  0  0  0  0  0
   -3.5686   -2.0055    0.0000 C   0  0  0  0  0  0  0  0  0  0  0  0
   -4.4347   -1.5055    0.0000 C   0  0  0  0  0  0  0  0  0  0  0  0
   -4.4347   -0.5055    0.0000 C   0  0  0  0  0  0  0  0  0  0  0  0
   -5.3007   -0.0055    0.0000 O   0  5  0  0  0  0  0  0  0  0  0  0
   -0.1045    0.9945    0.0000 N   0  0  0  0  0  0  0  0  0  0  0  0
    0.8090    1.4013    0.0000 C   0  0  0  0  0  0  0  0  0  0  0  0
    1.4781    0.6581    0.0000 C   0  0  0  0  0  0  0  0  0  0  0  0
    2.4727    0.7626    0.0000 C   0  0  0  0  0  0  0  0  0  0  0  0
    3.0605   -0.0464    0.0000 O   0  0  0  0  0  0  0  0  0  0  0  0
    2.8794    1.6762    0.0000 N   0  0  0  0  0  0  0  0  0  0  0  0
    3.8739    1.7807    0.0000 C   0  0  0  0  0  0  0  0  0  0  0  0
    4.3739    2.6467    0.0000 N   0  0  0  0  0  0  0  0  0  0  0  0
    5.3521    2.4388    0.0000 C   0  0  0  0  0  0  0  0  0  0  0  0
    5.4566    1.4443    0.0000 C   0  0  0  0  0  0  0  0  0  0  0  0
    4.5431    1.0376    0.0000 N   0  0  0  0  0  0  0  0  0  0  0  0
    4.3351    0.0594    0.0000 C   0  0  0  0  0  0  0  0  0  0  0  0
    0.9781   -0.2079    0.0000 N   0  0  0  0  0  0  0  0  0  0  0  0
    0.0000   -0.0000    0.0000 N   0  0  0  0  0  0  0  0  0  0  0  0
  1  2  1  0  0  0  0
  2  3  2  0  0  0  0
  2  4  1  0  0  0  0
  4  5  1  0  0  0  0
  5  6  2  0  0  0  0
  7  5  1  6  0  0  0
  7  8  1  0  0  0  0
  7 23  1  0  0  0  0
  8  9  2  0  0  0  0
  8 10  1  0  0  0  0
 10 11  1  1  0  0  0
 10 14  1  0  0  0  0
 11 12  1  0  0  0  0
 12 13  1  0  0  0  0
 14 15  2  0  0  0  0
 14 16  1  0  0  0  0
 16 21  2  0  0  0  0
 16 17  1  0  0  0  0
 17 18  2  0  0  0  0
 18 19  1  0  0  0  0
 19 20  2  0  0  0  0
 20 21  1  0  0  0  0
 21 22  1  0  0  0  0
 23 36  1  0  0  0  0
 23 24  1  0  0  0  0
 24 25  2  0  0  0  0
 25 26  1  0  0  0  0
 25 35  1  0  0  0  0
 26 27  2  0  0  0  0
 26 28  1  0  0  0  0
 28 29  1  0  0  0  0
 29 33  1  0  0  0  0
 29 30  2  0  0  0  0
 30 31  1  0  0  0  0
 31 32  2  0  0  0  0
 32 33  1  0  0  0  0
 33 34  1  0  0  0  0
 35 36  2  0  0  0  0
M  CHG  1  22  -1
M  END
$$$$
