
 OpenBabel03202621392D

 62 64  0  0  1  0  0  0  0  0999 V2000
   -0.2841    3.9926    0.2595 C   0  0  0  0  0  0  0  0  0  0  0  0
   -0.1634    2.4804    0.1734 C   0  0  0  0  0  0  0  0  0  0  0  0
    1.0418    2.0069   -0.6346 C   0  0  1  0  0  0  0  0  0  0  0  0
    2.4157    2.3260   -0.0028 C   0  0  0  0  0  0  0  0  0  0  0  0
    2.8239    3.4094    0.3807 O   0  0  0  0  0  0  0  0  0  0  0  0
    3.1479    1.1429    0.0274 N   0  0  0  0  0  0  0  0  0  0  0  0
    2.3821    0.0640   -0.3812 C   0  0  0  0  0  0  0  0  0  0  0  0
    2.7419   -1.2660   -0.3815 C   0  0  0  0  0  0  0  0  0  0  0  0
    1.7405   -2.1919   -0.6757 C   0  0  0  0  0  0  0  0  0  0  0  0
    0.4252   -1.7559   -0.9272 C   0  0  0  0  0  0  0  0  0  0  0  0
   -0.6155   -2.6387   -1.0250 O   0  0  0  0  0  0  0  0  0  0  0  0
   -0.8126   -3.3350    0.2080 C   0  0  0  0  0  0  0  0  0  0  0  0
   -2.0826   -2.9139    0.9586 C   0  0  0  0  0  0  0  0  0  0  0  0
   -3.2237   -2.2465    0.1424 C   0  0  2  0  0  0  0  0  0  0  0  0
   -3.5714   -0.8493    0.6683 C   0  0  0  0  0  0  0  0  0  0  0  0
   -2.6932   -0.1369    1.1832 O   0  0  0  0  0  0  0  0  0  0  0  0
   -4.8858   -0.1746    0.3998 C   0  0  0  0  0  0  0  0  0  0  0  0
   -6.1375   -0.8082    0.4623 C   0  0  0  0  0  0  0  0  0  0  0  0
   -7.3160   -0.1247    0.1421 C   0  0  0  0  0  0  0  0  0  0  0  0
   -7.2703    1.2218   -0.1975 C   0  0  0  0  0  0  0  0  0  0  0  0
   -6.0473    1.8877   -0.1980 C   0  0  0  0  0  0  0  0  0  0  0  0
   -4.8749    1.1973    0.1062 C   0  0  0  0  0  0  0  0  0  0  0  0
   -3.7288    1.9515    0.1249 O   0  0  0  0  0  0  0  0  0  0  0  0
   -4.3783   -3.1952    0.2151 C   0  0  0  0  0  0  0  0  0  0  0  0
   -4.8511   -3.5031    1.3154 O   0  0  0  0  0  0  0  0  0  0  0  0
   -4.9919   -3.6893   -1.0971 C   0  0  1  0  0  0  0  0  0  0  0  0
   -4.0484   -4.1256   -2.0552 O   0  0  0  0  0  0  0  0  0  0  0  0
   -6.0553   -4.7414   -0.8110 C   0  0  0  0  0  0  0  0  0  0  0  0
   -7.1977   -4.6331   -1.2716 O   0  0  0  0  0  0  0  0  0  0  0  0
   -5.7252   -5.8774    0.1257 C   0  0  0  0  0  0  0  0  0  0  0  0
   -4.3301   -6.5000    0.0000 C   0  0  0  0  0  0  0  0  0  0  0  0
   -4.3301   -7.5000    0.0000 C   0  0  0  0  0  0  0  0  0  0  0  0
   -3.3570   -5.7597   -0.1856 O   0  0  0  0  0  0  0  0  0  0  0  0
    0.1115   -0.4044   -1.0359 C   0  0  0  0  0  0  0  0  0  0  0  0
    1.1063    0.5033   -0.7345 C   0  0  0  0  0  0  0  0  0  0  0  0
    0.4795    4.4144    0.9180 H   0  0  0  0  0  0  0  0  0  0  0  0
   -1.2621    4.2648    0.6699 H   0  0  0  0  0  0  0  0  0  0  0  0
   -0.1912    4.4547   -0.7281 H   0  0  0  0  0  0  0  0  0  0  0  0
   -1.0743    2.1069   -0.3080 H   0  0  0  0  0  0  0  0  0  0  0  0
   -0.1483    2.0590    1.1859 H   0  0  0  0  0  0  0  0  0  0  0  0
    1.0338    2.4289   -1.6468 H   0  0  0  0  0  0  0  0  0  0  0  0
    4.0786    1.0913    0.4127 H   0  0  0  0  0  0  0  0  0  0  0  0
    3.7424   -1.5905   -0.1221 H   0  0  0  0  0  0  0  0  0  0  0  0
    1.9665   -3.2550   -0.6576 H   0  0  0  0  0  0  0  0  0  0  0  0
    0.0299   -3.2332    0.9082 H   0  0  0  0  0  0  0  0  0  0  0  0
   -0.8609   -4.4011   -0.0386 H   0  0  0  0  0  0  0  0  0  0  0  0
   -1.7827   -2.2649    1.7889 H   0  0  0  0  0  0  0  0  0  0  0  0
   -2.4304   -3.8261    1.4647 H   0  0  0  0  0  0  0  0  0  0  0  0
   -2.9416   -2.1192   -0.9070 H   0  0  0  0  0  0  0  0  0  0  0  0
   -6.2730   -1.8248    0.7994 H   0  0  0  0  0  0  0  0  0  0  0  0
   -8.2715   -0.6452    0.1775 H   0  0  0  0  0  0  0  0  0  0  0  0
   -8.1853    1.7590   -0.4306 H   0  0  0  0  0  0  0  0  0  0  0  0
   -6.0075    2.9517   -0.4187 H   0  0  0  0  0  0  0  0  0  0  0  0
   -3.0538    1.4411    0.6261 H   0  0  0  0  0  0  0  0  0  0  0  0
   -5.5104   -2.8325   -1.5425 H   0  0  0  0  0  0  0  0  0  0  0  0
   -3.4664   -4.7860   -1.6213 H   0  0  0  0  0  0  0  0  0  0  0  0
   -6.4732   -6.6567   -0.1019 H   0  0  0  0  0  0  0  0  0  0  0  0
   -5.9047   -5.5899    1.1643 H   0  0  0  0  0  0  0  0  0  0  0  0
   -4.1609   -7.6296   -1.0958 H   0  0  0  0  0  0  0  0  0  0  0  0
   -3.3999   -7.6630    0.5961 H   0  0  0  0  0  0  0  0  0  0  0  0
   -4.3301   -8.5700    0.0000 H   0  0  0  0  0  0  0  0  0  0  0  0
   -0.8989   -0.0880   -1.2680 H   0  0  0  0  0  0  0  0  0  0  0  0
  1  2  1  0  0  0  0
  1 36  1  0  0  0  0
  1 37  1  0  0  0  0
  1 38  1  0  0  0  0
  2 39  1  0  0  0  0
  2 40  1  0  0  0  0
  3  2  1  0  0  0  0
  3  4  1  0  0  0  0
  3 35  1  0  0  0  0
  3 41  1  6  0  0  0
  4  5  2  0  0  0  0
  4  6  1  0  0  0  0
  6  7  1  0  0  0  0
  6 42  1  0  0  0  0
  7 35  2  0  0  0  0
  7  8  1  0  0  0  0
  8  9  2  0  0  0  0
  8 43  1  0  0  0  0
  9 10  1  0  0  0  0
  9 44  1  0  0  0  0
 10 11  1  0  0  0  0
 10 34  2  0  0  0  0
 11 12  1  0  0  0  0
 12 13  1  0  0  0  0
 12 45  1  0  0  0  0
 12 46  1  0  0  0  0
 13 47  1  0  0  0  0
 13 48  1  0  0  0  0
 14 13  1  0  0  0  0
 14 15  1  0  0  0  0
 14 24  1  0  0  0  0
 14 49  1  6  0  0  0
 15 16  2  0  0  0  0
 15 17  1  0  0  0  0
 17 22  2  0  0  0  0
 17 18  1  0  0  0  0
 18 19  2  0  0  0  0
 18 50  1  0  0  0  0
 19 20  1  0  0  0  0
 19 51  1  0  0  0  0
 20 21  2  0  0  0  0
 20 52  1  0  0  0  0
 21 22  1  0  0  0  0
 21 53  1  0  0  0  0
 22 23  1  0  0  0  0
 23 54  1  0  0  0  0
 24 25  2  0  0  0  0
 24 26  1  0  0  0  0
 26 27  1  0  0  0  0
 26 28  1  0  0  0  0
 26 55  1  6  0  0  0
 27 56  1  0  0  0  0
 28 29  2  0  0  0  0
 28 30  1  0  0  0  0
 30 31  1  0  0  0  0
 30 57  1  0  0  0  0
 30 58  1  0  0  0  0
 31 32  1  0  0  0  0
 31 33  2  0  0  0  0
 32 59  1  0  0  0  0
 32 60  1  0  0  0  0
 32 61  1  0  0  0  0
 34 35  1  0  0  0  0
 34 62  1  0  0  0  0
M  END
$$$$
