
 OpenBabel03202621392D

 72 74  0  0  1  0  0  0  0  0999 V2000
    3.4641   -5.0000    0.0000 C   0  0  0  0  0  0  0  0  0  0  0  0
    4.3301   -4.5000    0.0000 C   0  0  0  0  0  0  0  0  0  0  0  0
    5.2732   -4.6336   -0.7810 O   0  0  0  0  0  0  0  0  0  0  0  0
    4.5532   -3.7203    1.2802 C   0  0  0  0  0  0  0  0  0  0  0  0
    3.8100   -2.4194    1.2243 C   0  0  0  0  0  0  0  0  0  0  0  0
    3.6641   -1.7927    2.2718 O   0  0  0  0  0  0  0  0  0  0  0  0
    3.2574   -1.9537   -0.1972 C   0  0  2  0  0  0  0  0  0  0  0  0
    3.9582   -1.3734   -1.2831 O   0  0  0  0  0  0  0  0  0  0  0  0
    5.3610   -1.7577   -1.4233 C   0  0  0  0  0  0  0  0  0  0  0  0
    6.0622   -1.5000    0.0000 C   0  0  2  0  0  0  0  0  0  0  0  0
    7.4077   -1.8528    0.5208 O   0  0  0  0  0  0  0  0  0  0  0  0
    6.0622   -0.5000    0.0000 C   0  0  0  0  0  0  0  0  0  0  0  0
    6.8551    0.3285   -0.9623 O   0  0  0  0  0  0  0  0  0  0  0  0
    8.0968   -0.2666   -1.2623 N   0  0  0  0  0  0  0  0  0  0  0  0
    9.0915    0.3167   -0.6570 C   0  0  0  0  0  0  0  0  0  0  0  0
    9.0040    1.6567    0.0450 C   0  0  0  0  0  0  0  0  0  0  0  0
   10.2968    2.4647    0.0425 C   0  0  0  0  0  0  0  0  0  0  0  0
   11.6123    1.7025   -0.1159 C   0  0  0  0  0  0  0  0  0  0  0  0
   11.5219    0.2087   -0.0993 C   0  0  0  0  0  0  0  0  0  0  0  0
   12.6560   -0.5677    0.2002 C   0  0  0  0  0  0  0  0  0  0  0  0
   12.6062   -1.9624    0.1723 C   0  0  0  0  0  0  0  0  0  0  0  0
   11.4344   -2.6082   -0.1910 C   0  0  0  0  0  0  0  0  0  0  0  0
   10.3245   -1.8483   -0.5435 C   0  0  0  0  0  0  0  0  0  0  0  0
   10.3521   -0.4479   -0.4747 C   0  0  0  0  0  0  0  0  0  0  0  0
    1.9543   -1.2200    0.0837 C   0  0  0  0  0  0  0  0  0  0  0  0
    1.8663   -0.3472    0.9575 O   0  0  0  0  0  0  0  0  0  0  0  0
    0.7422   -1.7060   -0.6967 C   0  0  2  0  0  0  0  0  0  0  0  0
    0.5394   -3.1771   -0.1940 C   0  0  0  0  0  0  0  0  0  0  0  0
   -0.7795   -3.9240   -0.1359 C   0  0  0  0  0  0  0  0  0  0  0  0
   -1.6679   -3.3492    0.7948 O   0  0  0  0  0  0  0  0  0  0  0  0
   -0.4300   -0.7328   -0.6592 C   0  0  0  0  0  0  0  0  0  0  0  0
   -1.5655   -1.1987   -0.6049 O   0  0  0  0  0  0  0  0  0  0  0  0
   -0.2042    0.7777   -0.7502 C   0  0  0  0  0  0  0  0  0  0  0  0
    1.0556    1.3770   -0.9761 C   0  0  0  0  0  0  0  0  0  0  0  0
    1.2736    2.7447   -0.7487 C   0  0  0  0  0  0  0  0  0  0  0  0
    0.2180    3.5752   -0.4066 C   0  0  0  0  0  0  0  0  0  0  0  0
   -1.0593    3.0445   -0.3177 C   0  0  0  0  0  0  0  0  0  0  0  0
   -1.2728    1.6549   -0.4749 C   0  0  0  0  0  0  0  0  0  0  0  0
   -2.5512    1.1870   -0.3841 O   0  0  0  0  0  0  0  0  0  0  0  0
    3.8490   -5.9287    0.4905 H   0  0  0  0  0  0  0  0  0  0  0  0
    3.3557   -5.1685   -1.1007 H   0  0  0  0  0  0  0  0  0  0  0  0
    2.5375   -5.5350    0.0000 H   0  0  0  0  0  0  0  0  0  0  0  0
    5.6127   -3.6028    1.5128 H   0  0  0  0  0  0  0  0  0  0  0  0
    4.1632   -4.2984    2.1328 H   0  0  0  0  0  0  0  0  0  0  0  0
    2.9108   -2.8580   -0.6749 H   0  0  0  0  0  0  0  0  0  0  0  0
    5.4311   -2.7715   -1.8171 H   0  0  0  0  0  0  0  0  0  0  0  0
    5.7799   -1.1765   -2.2578 H   0  0  0  0  0  0  0  0  0  0  0  0
    6.0622   -2.5700    0.0000 H   0  0  0  0  0  0  0  0  0  0  0  0
    7.7379   -2.6742    0.1161 H   0  0  0  0  0  0  0  0  0  0  0  0
    5.1028    0.0426   -0.0063 H   0  0  0  0  0  0  0  0  0  0  0  0
    6.3950   -0.0491    0.9561 H   0  0  0  0  0  0  0  0  0  0  0  0
    8.6827    1.4694    1.0769 H   0  0  0  0  0  0  0  0  0  0  0  0
    8.2236    2.2692   -0.4217 H   0  0  0  0  0  0  0  0  0  0  0  0
   10.2458    3.2181   -0.7547 H   0  0  0  0  0  0  0  0  0  0  0  0
   10.3373    3.0540    0.9700 H   0  0  0  0  0  0  0  0  0  0  0  0
   12.3090    2.0391    0.6626 H   0  0  0  0  0  0  0  0  0  0  0  0
   12.0642    1.9846   -1.0759 H   0  0  0  0  0  0  0  0  0  0  0  0
   13.5961   -0.0782    0.4620 H   0  0  0  0  0  0  0  0  0  0  0  0
   13.4846   -2.5468    0.4351 H   0  0  0  0  0  0  0  0  0  0  0  0
   11.3750   -3.6920   -0.1974 H   0  0  0  0  0  0  0  0  0  0  0  0
    9.4238   -2.3620   -0.8543 H   0  0  0  0  0  0  0  0  0  0  0  0
    1.0264   -1.7475   -1.7574 H   0  0  0  0  0  0  0  0  0  0  0  0
    1.1600   -3.8043   -0.8458 H   0  0  0  0  0  0  0  0  0  0  0  0
    0.9728   -3.2645    0.8138 H   0  0  0  0  0  0  0  0  0  0  0  0
   -0.5616   -4.9382    0.2296 H   0  0  0  0  0  0  0  0  0  0  0  0
   -1.2460   -4.0353   -1.1174 H   0  0  0  0  0  0  0  0  0  0  0  0
   -1.9709   -2.5053    0.3940 H   0  0  0  0  0  0  0  0  0  0  0  0
    1.9308    0.7999   -1.2531 H   0  0  0  0  0  0  0  0  0  0  0  0
    2.2862    3.1471   -0.8081 H   0  0  0  0  0  0  0  0  0  0  0  0
    0.3911    4.6313   -0.2070 H   0  0  0  0  0  0  0  0  0  0  0  0
   -1.8929    3.7040   -0.0950 H   0  0  0  0  0  0  0  0  0  0  0  0
   -3.1281    1.8848   -0.0391 H   0  0  0  0  0  0  0  0  0  0  0  0
  1  2  1  0  0  0  0
  1 40  1  0  0  0  0
  1 41  1  0  0  0  0
  1 42  1  0  0  0  0
  2  3  2  0  0  0  0
  2  4  1  0  0  0  0
  4  5  1  0  0  0  0
  4 43  1  0  0  0  0
  4 44  1  0  0  0  0
  5  6  2  0  0  0  0
  7  5  1  0  0  0  0
  7  8  1  0  0  0  0
  7 25  1  0  0  0  0
  7 45  1  6  0  0  0
  8  9  1  0  0  0  0
  9 10  1  0  0  0  0
  9 46  1  0  0  0  0
  9 47  1  0  0  0  0
 10 11  1  0  0  0  0
 10 12  1  0  0  0  0
 10 48  1  6  0  0  0
 11 49  1  0  0  0  0
 12 13  1  0  0  0  0
 12 50  1  0  0  0  0
 12 51  1  0  0  0  0
 13 14  1  0  0  0  0
 14 15  2  3  0  0  0
 15 24  1  0  0  0  0
 15 16  1  0  0  0  0
 16 17  1  0  0  0  0
 16 52  1  0  0  0  0
 16 53  1  0  0  0  0
 17 18  1  0  0  0  0
 17 54  1  0  0  0  0
 17 55  1  0  0  0  0
 18 19  1  0  0  0  0
 18 56  1  0  0  0  0
 18 57  1  0  0  0  0
 19 24  2  0  0  0  0
 19 20  1  0  0  0  0
 20 21  2  0  0  0  0
 20 58  1  0  0  0  0
 21 22  1  0  0  0  0
 21 59  1  0  0  0  0
 22 23  2  0  0  0  0
 22 60  1  0  0  0  0
 23 24  1  0  0  0  0
 23 61  1  0  0  0  0
 25 26  2  0  0  0  0
 25 27  1  0  0  0  0
 27 28  1  0  0  0  0
 27 31  1  0  0  0  0
 27 62  1  1  0  0  0
 28 29  1  0  0  0  0
 28 63  1  0  0  0  0
 28 64  1  0  0  0  0
 29 30  1  0  0  0  0
 29 65  1  0  0  0  0
 29 66  1  0  0  0  0
 30 67  1  0  0  0  0
 31 32  2  0  0  0  0
 31 33  1  0  0  0  0
 33 38  2  0  0  0  0
 33 34  1  0  0  0  0
 34 35  2  0  0  0  0
 34 68  1  0  0  0  0
 35 36  1  0  0  0  0
 35 69  1  0  0  0  0
 36 37  2  0  0  0  0
 36 70  1  0  0  0  0
 37 38  1  0  0  0  0
 37 71  1  0  0  0  0
 38 39  1  0  0  0  0
 39 72  1  0  0  0  0
M  END
$$$$
