
 OpenBabel03202621392D

 44 46  0  0  1  0  0  0  0  0999 V2000
    0.8695    1.5292    0.0000 C   0  0  0  0  0  0  0  0  0  0  0  0
    0.8695    0.5020    0.0000 C   0  0  0  0  0  0  0  0  0  0  0  0
   -0.0201    1.0156    0.0000 C   0  0  0  0  0  0  0  0  0  0  0  0
    2.0546   -0.3612   -0.5182 C   0  0  1  0  0  0  0  0  0  0  0  0
    2.6166   -1.1953    0.6941 C   0  0  0  0  0  0  0  0  0  0  0  0
    1.4303   -2.0991    0.9478 C   0  0  0  0  0  0  0  0  0  0  0  0
    0.5973   -1.6268   -0.2556 C   0  0  1  0  0  0  0  0  0  0  0  0
    1.5320   -1.4420   -1.4523 C   0  0  0  0  0  0  0  0  0  0  0  0
    0.0000    0.0000    0.0000 C   0  0  1  0  0  0  0  0  0  0  0  0
   -0.8896    0.5136    0.0000 C   0  0  0  0  0  0  0  0  0  0  0  0
   -0.8695   -0.5020    0.0000 N   0  0  0  0  0  0  0  0  0  0  0  0
   -2.2828   -0.8811   -0.8252 C   0  0  0  0  0  0  0  0  0  0  0  0
   -2.4756   -1.1526   -2.4777 S   0  0  0  0  0  0  0  0  0  0  0  0
   -3.4721   -0.5502   -0.0736 O   0  0  0  0  0  0  0  0  0  0  0  0
   -4.1804    0.7820   -0.0970 C   0  0  0  0  0  0  0  0  0  0  0  0
   -5.4587    0.9940   -0.4866 C   0  0  0  0  0  0  0  0  0  0  0  0
   -6.1809    2.1654   -0.4342 O   0  0  0  0  0  0  0  0  0  0  0  0
   -5.5498    3.4132   -0.0474 C   0  0  0  0  0  0  0  0  0  0  0  0
   -4.0470    3.3285    0.0841 C   0  0  0  0  0  0  0  0  0  0  0  0
   -3.7415    2.0046    0.6793 C   0  0  0  0  0  0  0  0  0  0  0  0
   -3.2475    1.8892    1.7964 O   0  0  0  0  0  0  0  0  0  0  0  0
    1.6242    1.7767   -0.8800 H   0  0  0  0  0  0  0  0  0  0  0  0
    1.6576    1.7097    0.8657 H   0  0  0  0  0  0  0  0  0  0  0  0
    0.8695    2.5992    0.0000 H   0  0  0  0  0  0  0  0  0  0  0  0
   -0.1707    1.7801   -1.2721 H   0  0  0  0  0  0  0  0  0  0  0  0
   -0.1837    1.6620    1.3203 H   0  0  0  0  0  0  0  0  0  0  0  0
   -0.9468    1.5506    0.0000 H   0  0  0  0  0  0  0  0  0  0  0  0
    2.8727    0.1799   -0.9904 H   0  0  0  0  0  0  0  0  0  0  0  0
    2.8784   -0.6105    1.5681 H   0  0  0  0  0  0  0  0  0  0  0  0
    3.4715   -1.8242    0.4071 H   0  0  0  0  0  0  0  0  0  0  0  0
    1.6699   -3.1621    0.8453 H   0  0  0  0  0  0  0  0  0  0  0  0
    0.9373   -1.9432    1.9107 H   0  0  0  0  0  0  0  0  0  0  0  0
   -0.1822   -2.4049   -0.4151 H   0  0  0  0  0  0  0  0  0  0  0  0
    2.4790   -2.0140   -1.5474 H   0  0  0  0  0  0  0  0  0  0  0  0
    1.0196   -2.3150   -1.8756 H   0  0  0  0  0  0  0  0  0  0  0  0
   -1.5120    0.5328    1.2569 H   0  0  0  0  0  0  0  0  0  0  0  0
   -1.3735    0.7358   -1.2995 H   0  0  0  0  0  0  0  0  0  0  0  0
   -1.8163    1.0486    0.0000 H   0  0  0  0  0  0  0  0  0  0  0  0
   -1.0757   -1.0880    0.8708 H   0  0  0  0  0  0  0  0  0  0  0  0
   -6.1163    0.2087   -0.8384 H   0  0  0  0  0  0  0  0  0  0  0  0
   -5.9882    3.7651    0.8928 H   0  0  0  0  0  0  0  0  0  0  0  0
   -5.8129    4.1733   -0.8015 H   0  0  0  0  0  0  0  0  0  0  0  0
   -3.6586    4.1396    0.7145 H   0  0  0  0  0  0  0  0  0  0  0  0
   -3.5506    3.4060   -0.9047 H   0  0  0  0  0  0  0  0  0  0  0  0
  1  2  1  0  0  0  0
  1 22  1  0  0  0  0
  1 23  1  0  0  0  0
  1 24  1  0  0  0  0
  2  9  1  0  0  0  0
  2  3  1  0  0  0  0
  2  4  1  0  0  0  0
  3 25  1  0  0  0  0
  3 26  1  0  0  0  0
  3 27  1  0  0  0  0
  4  5  1  0  0  0  0
  4  8  1  0  0  0  0
  4 28  1  6  0  0  0
  5  6  1  0  0  0  0
  5 29  1  0  0  0  0
  5 30  1  0  0  0  0
  6 31  1  0  0  0  0
  6 32  1  0  0  0  0
  7  6  1  0  0  0  0
  7  8  1  0  0  0  0
  7  9  1  0  0  0  0
  7 33  1  1  0  0  0
  8 34  1  0  0  0  0
  8 35  1  0  0  0  0
  9 10  1  1  0  0  0
  9 11  1  0  0  0  0
 10 36  1  0  0  0  0
 10 37  1  0  0  0  0
 10 38  1  0  0  0  0
 11 12  1  0  0  0  0
 11 39  1  0  0  0  0
 12 13  2  0  0  0  0
 12 14  1  0  0  0  0
 14 15  1  0  0  0  0
 15 20  1  0  0  0  0
 15 16  2  0  0  0  0
 16 17  1  0  0  0  0
 16 40  1  0  0  0  0
 17 18  1  0  0  0  0
 18 19  1  0  0  0  0
 18 41  1  0  0  0  0
 18 42  1  0  0  0  0
 19 20  1  0  0  0  0
 19 43  1  0  0  0  0
 19 44  1  0  0  0  0
 20 21  2  0  0  0  0
M  END
$$$$
