
 OpenBabel03202621302D

 17 18  0  0  1  0  0  0  0  0999 V2000
   -1.9319   -0.4824    0.0000 C   0  0  0  0  0  0  0  0  0  0  0  0
   -1.6730   -1.4483    0.0000 S   0  0  0  0  0  0  0  0  0  0  0  0
   -0.4364   -2.3867   -0.0000 C   0  0  0  0  0  0  0  0  0  0  0  0
   -0.1991   -3.5617    0.0000 O   0  0  0  0  0  0  0  0  0  0  0  0
    0.0000   -1.0000    0.0000 C   0  0  1  0  0  0  0  0  0  0  0  0
    0.0000    0.0000    0.0000 C   0  0  0  0  0  3  0  0  0  0  0  0
    1.0000    0.0000    0.0000 C   0  0  2  0  0  3  0  0  0  0  0  0
    2.0000    0.0000    0.0000 C   0  0  0  0  0  0  0  0  0  0  0  0
    2.0000   -1.0000    0.0000 C   0  0  0  0  0  0  0  0  0  0  0  0
    1.0000   -1.0000    0.0000 C   0  0  2  0  0  3  0  0  0  0  0  0
   -1.6779    0.7083    0.0000 H   0  0  0  0  0  0  0  0  0  0  0  0
   -3.0354   -0.5934    0.0000 H   0  0  0  0  0  0  0  0  0  0  0  0
   -2.2089    0.5511    0.0000 H   0  0  0  0  0  0  0  0  0  0  0  0
   -0.5471   -0.1231   -0.0000 H   0  0  0  0  0  0  0  0  0  0  0  0
   -0.0875    1.2426    0.0000 H   0  0  0  0  0  0  0  0  0  0  0  0
    2.8764    0.6641   -0.0000 H   0  0  0  0  0  0  0  0  0  0  0  0
    2.8735   -1.6687    0.0000 H   0  0  0  0  0  0  0  0  0  0  0  0
  1  2  1  0  0  0  0
  1 11  1  0  0  0  0
  1 12  1  0  0  0  0
  1 13  1  0  0  0  0
  2  3  1  0  0  0  0
  3  4  2  0  0  0  0
  5  3  1  0  0  0  0
  5  6  1  0  0  0  0
  5 10  1  0  0  0  0
  5 14  1  6  0  0  0
  6 15  1  0  0  0  0
  7  6  1  6  0  0  0
  7  8  1  0  0  0  0
  7 10  1  0  0  0  0
  8  9  2  0  0  0  0
  8 16  1  0  0  0  0
  9 17  1  0  0  0  0
 10  9  1  6  0  0  0
M  END
$$$$
