
 OpenBabel03202621382D

 36 38  0  0  1  0  0  0  0  0999 V2000
    6.2409    1.2544   -1.2928 O   0  0  0  0  0  0  0  0  0  0  0  0
    6.2916    0.0852   -0.9151 C   0  0  0  0  0  0  0  0  0  0  0  0
    7.3612   -0.3783    0.0353 C   0  0  0  0  0  0  0  0  0  0  0  0
    7.5677   -1.8649   -0.1434 C   0  0  0  0  0  0  0  0  0  0  0  0
    6.3510   -2.5983    0.0267 O   0  0  0  0  0  0  0  0  0  0  0  0
    5.3321   -2.1270   -0.7607 C   0  0  0  0  0  0  0  0  0  0  0  0
    5.2229   -0.8967   -1.2835 C   0  0  0  0  0  0  0  0  0  0  0  0
    4.2170   -0.4643   -2.1252 O   0  0  0  0  0  0  0  0  0  0  0  0
    2.8654   -0.7846   -1.7491 C   0  0  0  0  0  0  0  0  0  0  0  0
    2.2908    0.3162   -0.8443 C   0  0  2  0  0  0  0  0  0  0  0  0
    1.6126    1.2870   -1.6512 O   0  0  0  0  0  0  0  0  0  0  0  0
    1.3780   -0.2070    0.2324 C   0  0  2  0  0  0  0  0  0  0  0  0
    1.9270   -0.5706    1.5720 C   0  0  0  0  0  0  0  0  0  0  0  0
    2.0645   -2.0942    1.6041 C   0  0  0  0  0  0  0  0  0  0  0  0
    0.7693   -2.7792    1.1318 C   0  0  0  0  0  0  0  0  0  0  0  0
    0.0000   -2.0000    0.0000 C   0  0  0  0  0  0  0  0  0  0  0  0
    0.0000   -1.0000    0.0000 C   0  0  2  0  0  0  0  0  0  0  0  0
    0.0000    0.0000    0.0000 O   0  0  0  0  0  0  0  0  0  0  0  0
    8.2921    0.1553   -0.1805 H   0  0  0  0  0  0  0  0  0  0  0  0
    7.0338   -0.1425    1.0539 H   0  0  0  0  0  0  0  0  0  0  0  0
    8.2833   -2.2342    0.5985 H   0  0  0  0  0  0  0  0  0  0  0  0
    7.9792   -2.0958   -1.1345 H   0  0  0  0  0  0  0  0  0  0  0  0
    4.6061   -2.9159   -0.9102 H   0  0  0  0  0  0  0  0  0  0  0  0
    2.8047   -1.7761   -1.2968 H   0  0  0  0  0  0  0  0  0  0  0  0
    2.2939   -0.8317   -2.6829 H   0  0  0  0  0  0  0  0  0  0  0  0
    3.1101    0.8621   -0.3632 H   0  0  0  0  0  0  0  0  0  0  0  0
    1.0723    1.8223   -1.0436 H   0  0  0  0  0  0  0  0  0  0  0  0
    1.2497   -0.2386    2.3680 H   0  0  0  0  0  0  0  0  0  0  0  0
    2.8980   -0.0994    1.7562 H   0  0  0  0  0  0  0  0  0  0  0  0
    2.8835   -2.3946    0.9373 H   0  0  0  0  0  0  0  0  0  0  0  0
    2.3381   -2.4402    2.6051 H   0  0  0  0  0  0  0  0  0  0  0  0
    1.0037   -3.7917    0.7806 H   0  0  0  0  0  0  0  0  0  0  0  0
    0.1042   -2.8989    1.9993 H   0  0  0  0  0  0  0  0  0  0  0  0
   -0.9603   -2.5528   -0.0998 H   0  0  0  0  0  0  0  0  0  0  0  0
    0.4758   -2.4054   -0.9120 H   0  0  0  0  0  0  0  0  0  0  0  0
   -0.7219   -1.0486    0.8540 H   0  0  0  0  0  0  0  0  0  0  0  0
  1  2  2  0  0  0  0
  2  7  1  0  0  0  0
  2  3  1  0  0  0  0
  3  4  1  0  0  0  0
  3 19  1  0  0  0  0
  3 20  1  0  0  0  0
  4  5  1  0  0  0  0
  4 21  1  0  0  0  0
  4 22  1  0  0  0  0
  5  6  1  0  0  0  0
  6  7  2  0  0  0  0
  6 23  1  0  0  0  0
  7  8  1  0  0  0  0
  8  9  1  0  0  0  0
  9 10  1  0  0  0  0
  9 24  1  0  0  0  0
  9 25  1  0  0  0  0
 10 11  1  0  0  0  0
 10 26  1  6  0  0  0
 11 27  1  0  0  0  0
 12 10  1  6  0  0  0
 12 17  1  0  0  0  0
 12 18  1  0  0  0  0
 12 13  1  0  0  0  0
 13 14  1  0  0  0  0
 13 28  1  0  0  0  0
 13 29  1  0  0  0  0
 14 15  1  0  0  0  0
 14 30  1  0  0  0  0
 14 31  1  0  0  0  0
 15 16  1  0  0  0  0
 15 32  1  0  0  0  0
 15 33  1  0  0  0  0
 16 34  1  0  0  0  0
 16 35  1  0  0  0  0
 17 16  1  0  0  0  0
 17 18  1  0  0  0  0
 17 36  1  1  0  0  0
M  END
$$$$
