
 OpenBabel03202621342D

 24 24  0  0  1  0  0  0  0  0999 V2000
   -1.7103   -1.9691    0.0000 C   0  0  0  0  0  0  0  0  0  0  0  0
   -1.1225   -2.7781    0.0000 S   0  0  0  0  0  0  0  0  0  0  0  0
    0.5020   -2.3187    0.4917 C   0  0  0  0  0  0  0  0  0  0  0  0
    1.1739   -3.1258    1.1331 O   0  0  0  0  0  0  0  0  0  0  0  0
    1.1302   -0.9672    0.0271 C   0  0  1  0  0  0  0  0  0  0  0  0
    1.6287   -1.1002   -1.3591 N   0  0  0  0  0  0  0  0  0  0  0  0
    0.2904    0.3106    0.2816 C   0  0  2  0  0  0  0  0  0  0  0  0
   -0.5136    0.8590   -0.8767 C   0  0  0  0  0  0  0  0  0  0  0  0
   -0.5109    2.1967   -0.9035 C   0  0  0  0  0  0  0  0  0  0  0  0
    0.3308    2.7611    0.1892 C   0  0  0  0  0  0  0  0  0  0  0  0
    1.1638    1.5449    0.5980 C   0  0  0  0  0  0  0  0  0  0  0  0
   -2.0313   -1.9911   -1.0593 H   0  0  0  0  0  0  0  0  0  0  0  0
   -2.5429   -2.3607    0.6151 H   0  0  0  0  0  0  0  0  0  0  0  0
   -2.3392   -1.1035    0.0000 H   0  0  0  0  0  0  0  0  0  0  0  0
    2.0202   -0.8731    0.6672 H   0  0  0  0  0  0  0  0  0  0  0  0
    2.3266   -1.8465   -1.3868 H   0  0  0  0  0  0  0  0  0  0  0  0
    2.1187   -0.2445   -1.6210 H   0  0  0  0  0  0  0  0  0  0  0  0
   -0.3885    0.1415    1.1278 H   0  0  0  0  0  0  0  0  0  0  0  0
   -1.0599    0.2508   -1.5844 H   0  0  0  0  0  0  0  0  0  0  0  0
   -1.0551    2.7988   -1.6162 H   0  0  0  0  0  0  0  0  0  0  0  0
   -0.2974    3.1220    1.0097 H   0  0  0  0  0  0  0  0  0  0  0  0
    0.9659    3.5782   -0.1644 H   0  0  0  0  0  0  0  0  0  0  0  0
    1.4477    1.5860    1.6545 H   0  0  0  0  0  0  0  0  0  0  0  0
    2.0931    1.5295    0.0110 H   0  0  0  0  0  0  0  0  0  0  0  0
  1  2  1  0  0  0  0
  1 12  1  0  0  0  0
  1 13  1  0  0  0  0
  1 14  1  0  0  0  0
  2  3  1  0  0  0  0
  3  4  2  0  0  0  0
  3  5  1  0  0  0  0
  5  6  1  0  0  0  0
  5 15  1  1  0  0  0
  6 16  1  0  0  0  0
  6 17  1  0  0  0  0
  7  5  1  0  0  0  0
  7  8  1  0  0  0  0
  7 11  1  0  0  0  0
  7 18  1  1  0  0  0
  8  9  2  0  0  0  0
  8 19  1  0  0  0  0
  9 10  1  0  0  0  0
  9 20  1  0  0  0  0
 10 11  1  0  0  0  0
 10 21  1  0  0  0  0
 10 22  1  0  0  0  0
 11 23  1  0  0  0  0
 11 24  1  0  0  0  0
M  END
$$$$
