
 OpenBabel03202621312D

 29 29  0  0  1  0  0  0  0  0999 V2000
   -5.2779   -1.3789    0.0000 C   0  0  0  0  0  0  0  0  0  0  0  0
   -5.0191   -2.3449    0.0000 S   0  0  0  0  0  0  0  0  0  0  0  0
   -4.0097   -3.5607    0.5480 C   0  0  0  0  0  0  0  0  0  0  0  0
   -4.2362   -5.1768    0.2031 S   0  0  0  0  0  0  0  0  0  0  0  0
   -2.9224   -3.0650    1.2054 N   0  0  0  0  0  0  0  0  0  0  0  0
   -1.6961   -3.0408    0.4345 C   0  0  0  0  0  0  0  0  0  0  0  0
   -1.3249   -1.6082    0.1032 C   0  0  0  0  0  0  0  0  0  0  0  0
    0.0174   -1.6512   -0.5509 C   0  0  0  0  0  0  0  0  0  0  0  0
    0.2450   -2.3969   -1.4955 O   0  0  0  0  0  0  0  0  0  0  0  0
    0.9777   -0.8316   -0.0111 N   0  0  0  0  0  0  0  0  0  0  0  0
    0.8525    0.5164    0.0707 C   0  0  0  0  0  0  0  0  0  0  0  0
   -0.0917    1.2102    0.3414 O   0  0  0  0  0  0  0  0  0  0  0  0
    2.3888    0.7449   -0.1735 C   0  0  0  0  0  0  0  0  0  0  0  0
    2.3239   -0.7639   -0.5694 C   0  0  2  0  0  0  0  0  0  0  0  0
    3.1886   -1.8429    0.0703 C   0  0  0  0  0  0  0  0  0  0  0  0
   -4.4956   -0.9846   -0.6759 H   0  0  0  0  0  0  0  0  0  0  0  0
   -6.2232   -1.4539   -0.5697 H   0  0  0  0  0  0  0  0  0  0  0  0
   -5.5548   -0.3453    0.0000 H   0  0  0  0  0  0  0  0  0  0  0  0
   -3.1389   -2.1618    1.6065 H   0  0  0  0  0  0  0  0  0  0  0  0
   -1.8143   -3.6063   -0.5000 H   0  0  0  0  0  0  0  0  0  0  0  0
   -0.9234   -3.5411    1.0295 H   0  0  0  0  0  0  0  0  0  0  0  0
   -2.0293   -1.1581   -0.6079 H   0  0  0  0  0  0  0  0  0  0  0  0
   -1.3256   -0.9943    1.0076 H   0  0  0  0  0  0  0  0  0  0  0  0
    2.4234    1.7702    0.2302 H   0  0  0  0  0  0  0  0  0  0  0  0
    3.1051    0.5800    0.6652 H   0  0  0  0  0  0  0  0  0  0  0  0
    2.3226   -0.8939   -1.6625 H   0  0  0  0  0  0  0  0  0  0  0  0
    2.7634   -2.8365   -0.1145 H   0  0  0  0  0  0  0  0  0  0  0  0
    4.1939   -1.8363   -0.3615 H   0  0  0  0  0  0  0  0  0  0  0  0
    3.2737   -1.7194    1.1546 H   0  0  0  0  0  0  0  0  0  0  0  0
  1  2  1  0  0  0  0
  1 16  1  0  0  0  0
  1 17  1  0  0  0  0
  1 18  1  0  0  0  0
  2  3  1  0  0  0  0
  3  4  2  0  0  0  0
  3  5  1  0  0  0  0
  5  6  1  0  0  0  0
  5 19  1  0  0  0  0
  6  7  1  0  0  0  0
  6 20  1  0  0  0  0
  6 21  1  0  0  0  0
  7  8  1  0  0  0  0
  7 22  1  0  0  0  0
  7 23  1  0  0  0  0
  8  9  2  0  0  0  0
  8 10  1  0  0  0  0
 10 14  1  0  0  0  0
 10 11  1  0  0  0  0
 11 12  2  0  0  0  0
 11 13  1  0  0  0  0
 13 14  1  0  0  0  0
 13 24  1  0  0  0  0
 13 25  1  0  0  0  0
 14 15  1  0  0  0  0
 14 26  1  1  0  0  0
 15 27  1  0  0  0  0
 15 28  1  0  0  0  0
 15 29  1  0  0  0  0
M  END
$$$$
