
 OpenBabel03202621322D

 23 23  0  0  0  0  0  0  0  0999 V2000
   -0.6463   -5.8216    0.0965 N   0  0  0  0  0  0  0  0  0  0  0  0
   -0.7579   -4.4982   -0.2258 C   0  0  0  0  0  0  0  0  0  0  0  0
    0.0341   -3.6307    0.3289 N   0  0  0  0  0  0  0  0  0  0  0  0
    0.0205   -2.3299   -0.1757 N   0  0  0  0  0  0  0  0  0  0  0  0
   -0.7014   -1.5142    0.5199 C   0  0  0  0  0  0  0  0  0  0  0  0
   -0.7274   -0.0740    0.2228 C   0  0  0  0  0  0  0  0  0  0  0  0
   -1.9234    0.6336    0.3448 C   0  0  0  0  0  0  0  0  0  0  0  0
   -1.9356    2.0101    0.1096 C   0  0  0  0  0  0  0  0  0  0  0  0
   -0.7528    2.6756   -0.2207 C   0  0  0  0  0  0  0  0  0  0  0  0
    0.4430    1.9652   -0.3364 C   0  0  0  0  0  0  0  0  0  0  0  0
    0.4570    0.5861   -0.1264 C   0  0  0  0  0  0  0  0  0  0  0  0
   -2.0108   -4.1480   -1.3890 S   0  0  0  0  0  0  0  0  0  0  0  0
   -3.3275   -4.3313   -0.2413 C   0  0  0  0  0  0  0  0  0  0  0  0
   -4.4105   -3.7805   -0.4041 O   0  0  0  0  0  0  0  0  0  0  0  0
   -0.8109   -6.4368   -0.6934 H   0  0  0  0  0  0  0  0  0  0  0  0
    0.2524   -6.0033    0.5347 H   0  0  0  0  0  0  0  0  0  0  0  0
   -1.3281   -1.8618    1.3614 H   0  0  0  0  0  0  0  0  0  0  0  0
   -2.8485    0.1224    0.5982 H   0  0  0  0  0  0  0  0  0  0  0  0
   -2.8666    2.5671    0.1841 H   0  0  0  0  0  0  0  0  0  0  0  0
   -0.7628    3.7498   -0.3899 H   0  0  0  0  0  0  0  0  0  0  0  0
    1.3643    2.4859   -0.5855 H   0  0  0  0  0  0  0  0  0  0  0  0
    1.3899    0.0335   -0.2092 H   0  0  0  0  0  0  0  0  0  0  0  0
   -3.1543   -4.9825    0.6329 H   0  0  0  0  0  0  0  0  0  0  0  0
  1  2  1  0  0  0  0
  1 15  1  0  0  0  0
  1 16  1  0  0  0  0
  2  3  2  3  0  0  0
  2 12  1  0  0  0  0
  3  4  1  0  0  0  0
  4  5  2  3  0  0  0
  5  6  1  0  0  0  0
  5 17  1  0  0  0  0
  6 11  2  0  0  0  0
  6  7  1  0  0  0  0
  7  8  2  0  0  0  0
  7 18  1  0  0  0  0
  8  9  1  0  0  0  0
  8 19  1  0  0  0  0
  9 10  2  0  0  0  0
  9 20  1  0  0  0  0
 10 11  1  0  0  0  0
 10 21  1  0  0  0  0
 11 22  1  0  0  0  0
 12 13  1  0  0  0  0
 13 14  2  0  0  0  0
 13 23  1  0  0  0  0
M  END
$$$$
