
 OpenBabel03202621302D

 21 21  0  0  0  0  0  0  0  0999 V2000
    2.2953   -1.9260    0.0000 C   0  0  0  0  0  0  0  0  0  0  0  0
    2.5032   -0.9479    0.0000 S   0  0  0  0  0  0  0  0  0  0  0  0
    2.2454    0.5136    0.0000 C   0  0  0  0  0  0  0  0  0  0  0  0
    2.7790    1.5986   -0.0000 O   0  0  0  0  0  0  0  0  0  0  0  0
    1.0946   -0.3893    0.0000 C   0  0  0  0  0  0  0  0  0  0  0  0
    0.5306   -1.7402    0.0000 C   0  0  0  0  0  0  0  0  0  0  0  0
   -0.5000   -1.5388    0.0000 C   0  0  0  0  0  0  0  0  0  0  0  0
   -1.0878   -2.3479    0.0000 C   0  0  0  0  0  0  0  0  0  0  0  0
   -1.1243   -0.4601   -0.0000 N   0  0  0  0  0  0  0  0  0  0  0  0
    0.0000    0.0000    0.0000 N   0  0  0  0  0  0  0  0  0  0  0  0
    0.0000    1.0000    0.0000 C   0  0  0  0  0  0  0  0  0  0  0  0
    1.8131   -2.8945   -0.0000 H   0  0  0  0  0  0  0  0  0  0  0  0
    3.3560   -2.2685    0.0000 H   0  0  0  0  0  0  0  0  0  0  0  0
    2.0728   -2.9726    0.0000 H   0  0  0  0  0  0  0  0  0  0  0  0
    0.5424   -2.8280    0.0000 H   0  0  0  0  0  0  0  0  0  0  0  0
   -2.1809   -2.0644   -0.0000 H   0  0  0  0  0  0  0  0  0  0  0  0
   -0.7524   -3.4437   -0.0000 H   0  0  0  0  0  0  0  0  0  0  0  0
   -1.7167   -3.2136    0.0000 H   0  0  0  0  0  0  0  0  0  0  0  0
    0.8474    1.6721   -0.0000 H   0  0  0  0  0  0  0  0  0  0  0  0
   -1.0398    1.4468    0.0000 H   0  0  0  0  0  0  0  0  0  0  0  0
    0.0000    2.0700    0.0000 H   0  0  0  0  0  0  0  0  0  0  0  0
  1  2  1  0  0  0  0
  1 12  1  0  0  0  0
  1 13  1  0  0  0  0
  1 14  1  0  0  0  0
  2  3  1  0  0  0  0
  3  4  2  0  0  0  0
  3  5  1  0  0  0  0
  5 10  1  0  0  0  0
  5  6  2  0  0  0  0
  6  7  1  0  0  0  0
  6 15  1  0  0  0  0
  7  8  1  0  0  0  0
  7  9  2  0  0  0  0
  8 16  1  0  0  0  0
  8 17  1  0  0  0  0
  8 18  1  0  0  0  0
  9 10  1  0  0  0  0
 10 11  1  0  0  0  0
 11 19  1  0  0  0  0
 11 20  1  0  0  0  0
 11 21  1  0  0  0  0
M  END
$$$$
