
 OpenBabel03202621402D

 40 40  0  0  0  0  0  0  0  0999 V2000
    8.2142    4.7769    0.0474 C   0  0  0  0  0  0  0  0  0  0  0  0
    7.2481    5.7070    0.0966 C   0  0  0  0  0  0  0  0  0  0  0  0
    5.8072    5.3893    0.2119 C   0  0  0  0  0  0  0  0  0  0  0  0
    4.9302    6.1701   -0.1139 O   0  0  0  0  0  0  0  0  0  0  0  0
    5.6433    4.1300    0.6726 O   0  0  0  0  0  0  0  0  0  0  0  0
    4.3528    3.5222    0.4753 C   0  0  0  0  0  0  0  0  0  0  0  0
    4.6510    2.0724    0.0668 C   0  0  0  0  0  0  0  0  0  0  0  0
    3.4641    1.0000    0.0000 C   0  0  0  0  0  0  0  0  0  0  0  0
    2.9641    0.1340    0.0000 C   0  0  0  0  0  0  0  0  0  0  0  0
    3.9641    0.1340    0.0000 C   0  0  0  0  0  0  0  0  0  0  0  0
    2.3438    1.8887   -0.6987 N   0  0  0  0  0  0  0  0  0  0  0  0
    0.9361    1.8012   -0.6307 C   0  0  0  0  0  0  0  0  0  0  0  0
    0.2376    2.8053   -0.7188 O   0  0  0  0  0  0  0  0  0  0  0  0
    0.4896    0.5352   -0.4505 O   0  0  0  0  0  0  0  0  0  0  0  0
   -0.6637   -0.2698   -0.2141 C   0  0  0  0  0  0  0  0  0  0  0  0
   -0.4665   -1.5012    0.2704 C   0  0  0  0  0  0  0  0  0  0  0  0
   -1.4084   -2.4295    0.6055 O   0  0  0  0  0  0  0  0  0  0  0  0
   -2.6861   -2.1983    0.0192 C   0  0  0  0  0  0  0  0  0  0  0  0
   -3.1384   -0.7486    0.0715 C   0  0  0  0  0  0  0  0  0  0  0  0
   -2.0543    0.1808   -0.4003 C   0  0  0  0  0  0  0  0  0  0  0  0
   -2.3145    1.2824   -0.8755 O   0  0  0  0  0  0  0  0  0  0  0  0
    7.9973    3.7153    0.1104 H   0  0  0  0  0  0  0  0  0  0  0  0
    9.2532    5.0622   -0.0773 H   0  0  0  0  0  0  0  0  0  0  0  0
    7.4778    6.7612   -0.0125 H   0  0  0  0  0  0  0  0  0  0  0  0
    3.8186    4.0601   -0.3125 H   0  0  0  0  0  0  0  0  0  0  0  0
    3.7873    3.5720    1.4124 H   0  0  0  0  0  0  0  0  0  0  0  0
    5.4746    1.7652    0.7377 H   0  0  0  0  0  0  0  0  0  0  0  0
    5.1242    2.1578   -0.9292 H   0  0  0  0  0  0  0  0  0  0  0  0
    2.2201    0.2965    0.8879 H   0  0  0  0  0  0  0  0  0  0  0  0
    2.4936   -0.0348   -1.1113 H   0  0  0  0  0  0  0  0  0  0  0  0
    2.4291   -0.7926    0.0000 H   0  0  0  0  0  0  0  0  0  0  0  0
    4.5898    0.1500    1.0090 H   0  0  0  0  0  0  0  0  0  0  0  0
    4.6898    0.2119   -0.9267 H   0  0  0  0  0  0  0  0  0  0  0  0
    4.4991   -0.7926    0.0000 H   0  0  0  0  0  0  0  0  0  0  0  0
    2.5659    2.8400   -0.9489 H   0  0  0  0  0  0  0  0  0  0  0  0
    0.5191   -1.8893    0.4917 H   0  0  0  0  0  0  0  0  0  0  0  0
   -2.6591   -2.5682   -1.0137 H   0  0  0  0  0  0  0  0  0  0  0  0
   -3.4002   -2.8238    0.5640 H   0  0  0  0  0  0  0  0  0  0  0  0
   -4.0192   -0.6293   -0.5663 H   0  0  0  0  0  0  0  0  0  0  0  0
   -3.3975   -0.4660    1.0983 H   0  0  0  0  0  0  0  0  0  0  0  0
  1  2  2  0  0  0  0
  1 22  1  0  0  0  0
  1 23  1  0  0  0  0
  2  3  1  0  0  0  0
  2 24  1  0  0  0  0
  3  4  2  0  0  0  0
  3  5  1  0  0  0  0
  5  6  1  0  0  0  0
  6  7  1  0  0  0  0
  6 25  1  0  0  0  0
  6 26  1  0  0  0  0
  7  8  1  0  0  0  0
  7 27  1  0  0  0  0
  7 28  1  0  0  0  0
  8  9  1  0  0  0  0
  8 10  1  0  0  0  0
  8 11  1  0  0  0  0
  9 29  1  0  0  0  0
  9 30  1  0  0  0  0
  9 31  1  0  0  0  0
 10 32  1  0  0  0  0
 10 33  1  0  0  0  0
 10 34  1  0  0  0  0
 11 12  1  0  0  0  0
 11 35  1  0  0  0  0
 12 13  2  0  0  0  0
 12 14  1  0  0  0  0
 14 15  1  0  0  0  0
 15 20  1  0  0  0  0
 15 16  2  0  0  0  0
 16 17  1  0  0  0  0
 16 36  1  0  0  0  0
 17 18  1  0  0  0  0
 18 19  1  0  0  0  0
 18 37  1  0  0  0  0
 18 38  1  0  0  0  0
 19 20  1  0  0  0  0
 19 39  1  0  0  0  0
 19 40  1  0  0  0  0
 20 21  2  0  0  0  0
M  END
$$$$
