
 OpenBabel03202621342D

 10  9  0  0  0  0  0  0  0  0999 V2000
    4.3497   -1.0291   -0.0000 C   0  0  0  0  0  0  0  0  0  0  0  0
    3.4829   -0.1968   -0.0000 C   0  0  0  0  0  0  0  0  0  0  0  0
    2.2709    0.5475   -0.0000 C   0  0  0  0  0  0  0  0  0  0  0  0
    2.2677    1.7702   -0.0000 O   0  0  0  0  0  0  0  0  0  0  0  0
    0.8660   -0.5000    0.0000 S   0  0  0  0  0  0  0  0  0  0  0  0
    0.0000    0.0000    0.0000 C   0  0  0  0  0  0  0  0  0  0  0  0
    4.9483   -1.9056    0.0000 H   0  0  0  0  0  0  0  0  0  0  0  0
    0.1446    1.0843   -0.0000 H   0  0  0  0  0  0  0  0  0  0  0  0
   -0.7897   -0.7576   -0.0000 H   0  0  0  0  0  0  0  0  0  0  0  0
   -0.9266    0.5350    0.0000 H   0  0  0  0  0  0  0  0  0  0  0  0
  1  2  3  0  0  0  0
  1  7  1  0  0  0  0
  2  3  1  0  0  0  0
  3  4  2  0  0  0  0
  3  5  1  0  0  0  0
  5  6  1  0  0  0  0
  6  8  1  0  0  0  0
  6  9  1  0  0  0  0
  6 10  1  0  0  0  0
M  END
$$$$
