
 OpenBabel03202621332D

 34 34  0  0  1  0  0  0  0  0999 V2000
    1.7321   -1.0000    0.0000 C   0  0  0  0  0  0  0  0  0  0  0  0
    1.7321    0.0000    0.0000 O   0  0  0  0  0  0  0  0  0  0  0  0
    1.2239    0.9652   -0.7585 C   0  0  0  0  0  0  0  0  0  0  0  0
    1.5900    2.2522   -0.3304 C   0  0  0  0  0  0  0  0  0  0  0  0
    0.8104    3.3318   -0.6919 C   0  0  0  0  0  0  0  0  0  0  0  0
   -0.2865    3.0948   -1.5139 C   0  0  0  0  0  0  0  0  0  0  0  0
   -0.5560    1.8044   -2.0281 C   0  0  0  0  0  0  0  0  0  0  0  0
    0.2134    0.6884   -1.6496 C   0  0  0  0  0  0  0  0  0  0  0  0
   -0.2289   -0.8507   -1.7300 C   0  0  0  0  0  0  0  0  0  0  0  0
   -0.8660   -1.5000    0.0000 C   0  0  1  0  0  0  0  0  0  0  0  0
   -1.3660   -0.6340    0.0000 C   0  0  0  0  0  0  0  0  0  0  0  0
   -1.7321   -2.0000    0.0000 S   0  0  0  0  0  0  0  0  0  0  0  0
   -2.5981   -1.5000    0.0000 C   0  0  0  0  0  0  0  0  0  0  0  0
   -0.3660   -2.3660    0.0000 C   0  0  1  0  0  0  0  0  0  0  0  0
   -0.5482   -3.5118   -1.2468 O   0  0  0  0  0  0  0  0  0  0  0  0
    0.6340   -2.3660    0.0000 C   0  0  0  0  0  0  0  0  0  0  0  0
    1.6340   -2.3660    0.0000 N   0  0  0  0  0  0  0  0  0  0  0  0
    2.2362   -0.9795    1.0701 H   0  0  0  0  0  0  0  0  0  0  0  0
    2.6829   -1.0168   -0.7071 H   0  0  0  0  0  0  0  0  0  0  0  0
    1.7321   -2.0700    0.0000 H   0  0  0  0  0  0  0  0  0  0  0  0
    2.3972    2.3739    0.3711 H   0  0  0  0  0  0  0  0  0  0  0  0
    1.0172    4.3164   -0.2787 H   0  0  0  0  0  0  0  0  0  0  0  0
   -0.9687    3.9235   -1.7133 H   0  0  0  0  0  0  0  0  0  0  0  0
   -1.4836    1.6672   -2.5895 H   0  0  0  0  0  0  0  0  0  0  0  0
   -1.0110   -0.9662   -2.5073 H   0  0  0  0  0  0  0  0  0  0  0  0
    0.6204   -1.4108   -2.1513 H   0  0  0  0  0  0  0  0  0  0  0  0
   -1.7403   -0.0975   -1.0381 H   0  0  0  0  0  0  0  0  0  0  0  0
   -0.7222    0.0358    0.6869 H   0  0  0  0  0  0  0  0  0  0  0  0
   -1.9010    0.2926    0.0000 H   0  0  0  0  0  0  0  0  0  0  0  0
   -3.0826   -1.9364    0.9219 H   0  0  0  0  0  0  0  0  0  0  0  0
   -3.1312   -2.0276   -0.8418 H   0  0  0  0  0  0  0  0  0  0  0  0
   -3.5247   -0.9650    0.0000 H   0  0  0  0  0  0  0  0  0  0  0  0
   -0.3905   -3.1685    0.9224 H   0  0  0  0  0  0  0  0  0  0  0  0
   -1.3731   -3.9531   -0.9754 H   0  0  0  0  0  0  0  0  0  0  0  0
  1  2  1  0  0  0  0
  1 18  1  0  0  0  0
  1 19  1  0  0  0  0
  1 20  1  0  0  0  0
  2  3  1  0  0  0  0
  3  8  2  0  0  0  0
  3  4  1  0  0  0  0
  4  5  2  0  0  0  0
  4 21  1  0  0  0  0
  5  6  1  0  0  0  0
  5 22  1  0  0  0  0
  6  7  2  0  0  0  0
  6 23  1  0  0  0  0
  7  8  1  0  0  0  0
  7 24  1  0  0  0  0
  8  9  1  0  0  0  0
  9 10  1  0  0  0  0
  9 25  1  0  0  0  0
  9 26  1  0  0  0  0
 10 11  1  0  0  0  0
 10 12  1  6  0  0  0
 10 14  1  0  0  0  0
 11 27  1  0  0  0  0
 11 28  1  0  0  0  0
 11 29  1  0  0  0  0
 12 13  1  0  0  0  0
 13 30  1  0  0  0  0
 13 31  1  0  0  0  0
 13 32  1  0  0  0  0
 14 15  1  0  0  0  0
 14 16  1  0  0  0  0
 14 33  1  1  0  0  0
 15 34  1  0  0  0  0
 16 17  3  0  0  0  0
M  END
$$$$
