
 OpenBabel03202621282D

 25 27  0  0  1  0  0  0  0  0999 V2000
   -3.1429   -1.2811    0.0000 C   0  0  0  0  0  0  0  0  0  0  0  0
   -3.5497   -0.3676    0.0000 C   0  0  0  0  0  0  0  0  0  0  0  0
   -2.5551   -0.4721    0.0000 C   0  0  0  0  0  0  0  0  0  0  0  0
   -4.5007   -0.6766    0.0000 C   0  0  0  0  0  0  0  0  0  0  0  0
   -4.8097   -1.6276    0.0000 O   0  0  0  0  0  0  0  0  0  0  0  0
   -5.0885    0.1324    0.0000 N   0  0  0  0  0  0  0  0  0  0  0  0
   -6.0885    0.1324    0.0000 C   0  0  0  0  0  0  0  0  0  0  0  0
   -6.5885    0.9985    0.0000 C   0  0  2  0  0  0  0  0  0  0  0  0
   -7.4545    1.4985    0.0000 C   0  0  0  0  0  0  0  0  0  0  0  0
   -6.5885    1.9985    0.0000 O   0  0  0  0  0  0  0  0  0  0  0  0
   -4.5007    0.9414    0.0000 C   0  0  0  0  0  0  0  0  0  0  0  0
   -4.8097    1.8925    0.0000 O   0  0  0  0  0  0  0  0  0  0  0  0
   -3.5497    0.6324    0.0000 N   0  0  0  0  0  0  0  0  0  0  0  0
   -2.7406    1.2202    0.0000 C   0  0  0  0  0  0  0  0  0  0  0  0
   -1.8271    0.8135    0.0000 C   0  0  2  0  0  0  0  0  0  0  0  0
   -1.0181    1.4013    0.0000 C   0  0  0  0  0  0  0  0  0  0  0  0
   -1.1226    2.3958    0.0000 O   0  0  0  0  0  0  0  0  0  0  0  0
   -1.7226   -0.1810    0.0000 O   0  0  0  0  0  0  0  0  0  0  0  0
   -0.8090   -0.5878    0.0000 C   0  0  0  0  0  0  0  0  0  0  0  0
   -0.7045   -1.5823    0.0000 C   0  0  0  0  0  0  0  0  0  0  0  0
    0.2091   -1.9890    0.0000 O   0  0  0  0  0  0  0  0  0  0  0  0
    1.0181   -1.4013    0.0000 C   0  0  0  0  0  0  0  0  0  0  0  0
    0.9135   -0.4067    0.0000 C   0  0  0  0  0  0  0  0  0  0  0  0
    0.0000   -0.0000    0.0000 C   0  0  0  0  0  0  0  0  0  0  0  0
   -0.1045    0.9945    0.0000 O   0  5  0  0  0  0  0  0  0  0  0  0
  1  2  1  0  0  0  0
  2 13  1  0  0  0  0
  2  3  1  0  0  0  0
  2  4  1  0  0  0  0
  4  5  2  0  0  0  0
  4  6  1  0  0  0  0
  6  7  1  0  0  0  0
  6 11  1  0  0  0  0
  8  7  1  6  0  0  0
  8  9  1  0  0  0  0
  8 10  1  0  0  0  0
  9 10  1  0  0  0  0
 11 12  2  0  0  0  0
 11 13  1  0  0  0  0
 13 14  1  0  0  0  0
 15 14  1  6  0  0  0
 15 16  1  0  0  0  0
 15 18  1  0  0  0  0
 16 17  1  0  0  0  0
 18 19  1  0  0  0  0
 19 24  1  0  0  0  0
 19 20  2  0  0  0  0
 20 21  1  0  0  0  0
 21 22  1  0  0  0  0
 22 23  1  0  0  0  0
 23 24  2  0  0  0  0
 24 25  1  0  0  0  0
M  CHG  1  25  -1
M  END
$$$$
