
 OpenBabel03202621342D

 29 29  0  0  1  0  0  0  0  0999 V2000
    2.4013   -1.0181    0.0000 C   0  0  0  0  0  0  0  0  0  0  0  0
    2.9890   -0.2091    0.0000 C   0  0  0  0  0  0  0  0  0  0  0  0
    2.5823    0.7045    0.0000 C   0  0  2  0  0  0  0  0  0  0  0  0
    3.1701    1.5135    0.0000 C   0  0  0  0  0  0  0  0  0  0  0  0
    1.2690    1.3391   -0.8382 C   0  0  1  0  0  0  0  0  0  0  0  0
    0.8340    2.7738   -0.3745 C   0  0  0  0  0  0  0  0  0  0  0  0
    1.5126    3.5926    0.2391 O   0  0  0  0  0  0  0  0  0  0  0  0
   -0.4251    3.1005   -0.7056 O   0  0  0  0  0  0  0  0  0  0  0  0
    0.1015    0.4924   -0.6390 N   0  0  0  0  0  0  0  0  0  0  0  0
    0.1441   -0.7769   -1.1589 C   0  0  0  0  0  0  0  0  0  0  0  0
    0.5000   -1.5388    0.0000 C   0  0  0  0  0  0  0  0  0  0  0  0
    0.5000   -2.5388    0.0000 C   0  0  0  0  0  0  0  0  0  0  0  0
   -0.0293   -0.7700    1.0671 N   0  0  0  0  0  0  0  0  0  0  0  0
   -0.3889    0.4239    0.6099 N   0  0  0  0  0  0  0  0  0  0  0  0
    2.4642   -1.2764    1.1209 H   0  0  0  0  0  0  0  0  0  0  0  0
    3.0949   -1.8227   -0.4256 H   0  0  0  0  0  0  0  0  0  0  0  0
    1.7724   -1.8838    0.0000 H   0  0  0  0  0  0  0  0  0  0  0  0
    3.5560   -0.3216   -0.9799 H   0  0  0  0  0  0  0  0  0  0  0  0
    3.8980   -0.3597    0.6644 H   0  0  0  0  0  0  0  0  0  0  0  0
    2.0386    0.7978    0.9883 H   0  0  0  0  0  0  0  0  0  0  0  0
    3.9596    1.3801   -0.8039 H   0  0  0  0  0  0  0  0  0  0  0  0
    3.5953    1.5815    1.0542 H   0  0  0  0  0  0  0  0  0  0  0  0
    3.7990    2.3791    0.0000 H   0  0  0  0  0  0  0  0  0  0  0  0
    1.4856    1.3873   -1.9111 H   0  0  0  0  0  0  0  0  0  0  0  0
   -0.6103    3.8972   -0.1752 H   0  0  0  0  0  0  0  0  0  0  0  0
    0.2009   -0.9940   -2.2098 H   0  0  0  0  0  0  0  0  0  0  0  0
   -0.5711   -2.7481   -0.2663 H   0  0  0  0  0  0  0  0  0  0  0  0
    0.5674   -2.7804    1.1038 H   0  0  0  0  0  0  0  0  0  0  0  0
    0.5000   -3.6088    0.0000 H   0  0  0  0  0  0  0  0  0  0  0  0
  1  2  1  0  0  0  0
  1 15  1  0  0  0  0
  1 16  1  0  0  0  0
  1 17  1  0  0  0  0
  2  3  1  0  0  0  0
  2 18  1  0  0  0  0
  2 19  1  0  0  0  0
  3  4  1  0  0  0  0
  3  5  1  0  0  0  0
  3 20  1  6  0  0  0
  4 21  1  0  0  0  0
  4 22  1  0  0  0  0
  4 23  1  0  0  0  0
  5  6  1  0  0  0  0
  5  9  1  0  0  0  0
  5 24  1  1  0  0  0
  6  7  2  0  0  0  0
  6  8  1  0  0  0  0
  8 25  1  0  0  0  0
  9 14  1  0  0  0  0
  9 10  1  0  0  0  0
 10 11  2  0  0  0  0
 10 26  1  0  0  0  0
 11 12  1  0  0  0  0
 11 13  1  0  0  0  0
 12 27  1  0  0  0  0
 12 28  1  0  0  0  0
 12 29  1  0  0  0  0
 13 14  2  0  0  0  0
M  END
$$$$
