
 OpenBabel03202621322D

 21 21  0  0  0  0  0  0  0  0999 V2000
    4.2467    3.4295   -0.0000 C   0  0  0  0  0  0  0  0  0  0  0  0
    2.9146    3.4767   -0.0000 C   0  0  0  0  0  0  0  0  0  0  0  0
    1.9708    2.5037   -0.0000 N   0  0  0  0  0  0  0  0  0  0  0  0
    2.0481    1.1106    0.0000 C   0  0  0  0  0  0  0  0  0  0  0  0
    3.1910    0.3065    0.0000 C   0  0  0  0  0  0  0  0  0  0  0  0
    3.2019   -1.0492    0.0000 N   0  0  0  0  0  0  0  0  0  0  0  0
    1.9998   -1.6400    0.0000 C   0  0  0  0  0  0  0  0  0  0  0  0
    0.7897   -0.9297    0.0000 C   0  0  0  0  0  0  0  0  0  0  0  0
   -0.8660   -1.5000    0.0000 S   0  0  0  0  0  0  0  0  0  0  0  0
   -0.8660   -2.5000    0.0000 C   0  0  0  0  0  0  0  0  0  0  0  0
    0.8363    0.4513    0.0000 C   0  0  0  0  0  0  0  0  0  0  0  0
    4.8126    2.5126    0.0000 H   0  0  0  0  0  0  0  0  0  0  0  0
    4.8244    4.3424    0.0000 H   0  0  0  0  0  0  0  0  0  0  0  0
    2.4421    4.4589   -0.0000 H   0  0  0  0  0  0  0  0  0  0  0  0
    1.0158    2.8554   -0.0000 H   0  0  0  0  0  0  0  0  0  0  0  0
    4.1918    0.7017   -0.0000 H   0  0  0  0  0  0  0  0  0  0  0  0
    2.0528   -2.7255    0.0000 H   0  0  0  0  0  0  0  0  0  0  0  0
   -1.9200   -2.7991   -0.0000 H   0  0  0  0  0  0  0  0  0  0  0  0
    0.1137   -2.9678   -0.0000 H   0  0  0  0  0  0  0  0  0  0  0  0
   -0.8660   -3.5700    0.0000 H   0  0  0  0  0  0  0  0  0  0  0  0
   -0.0878    1.0175    0.0000 H   0  0  0  0  0  0  0  0  0  0  0  0
  1  2  2  0  0  0  0
  1 12  1  0  0  0  0
  1 13  1  0  0  0  0
  2  3  1  0  0  0  0
  2 14  1  0  0  0  0
  3  4  1  0  0  0  0
  3 15  1  0  0  0  0
  4 11  2  0  0  0  0
  4  5  1  0  0  0  0
  5  6  2  0  0  0  0
  5 16  1  0  0  0  0
  6  7  1  0  0  0  0
  7  8  2  0  0  0  0
  7 17  1  0  0  0  0
  8  9  1  0  0  0  0
  8 11  1  0  0  0  0
  9 10  1  0  0  0  0
 10 18  1  0  0  0  0
 10 19  1  0  0  0  0
 10 20  1  0  0  0  0
 11 21  1  0  0  0  0
M  END
$$$$
