
 OpenBabel03202621362D

 25 25  0  0  0  0  0  0  0  0999 V2000
    2.4183    3.6742   -0.2509 C   0  0  0  0  0  0  0  0  0  0  0  0
    1.1849    2.8022   -0.0789 C   0  0  0  0  0  0  0  0  0  0  0  0
    1.4129    1.3171    0.0615 C   0  0  0  0  0  0  0  0  0  0  0  0
    2.6563    0.7183    0.2706 C   0  0  0  0  0  0  0  0  0  0  0  0
    2.7604   -0.6602    0.4800 C   0  0  0  0  0  0  0  0  0  0  0  0
    1.6259   -1.4873    0.4628 C   0  0  0  0  0  0  0  0  0  0  0  0
    1.8668   -3.1869    0.9903 S   0  0  0  0  0  0  0  0  0  0  0  0
    2.8362   -3.8604   -0.3002 C   0  0  0  0  0  0  0  0  0  0  0  0
    2.6775   -5.0148   -0.6926 O   0  0  0  0  0  0  0  0  0  0  0  0
    0.3679   -0.8994    0.1753 C   0  0  0  0  0  0  0  0  0  0  0  0
   -0.8660   -1.5000    0.0000 O   0  0  0  0  0  0  0  0  0  0  0  0
   -0.8660   -2.5000    0.0000 C   0  0  0  0  0  0  0  0  0  0  0  0
    0.2834    0.4899    0.0109 C   0  0  0  0  0  0  0  0  0  0  0  0
    3.0471    3.3218   -1.0740 H   0  0  0  0  0  0  0  0  0  0  0  0
    2.1144    4.7026   -0.4716 H   0  0  0  0  0  0  0  0  0  0  0  0
    3.0193    3.6926    0.6643 H   0  0  0  0  0  0  0  0  0  0  0  0
    0.6398    3.1442    0.8113 H   0  0  0  0  0  0  0  0  0  0  0  0
    0.5319    2.9661   -0.9430 H   0  0  0  0  0  0  0  0  0  0  0  0
    3.5663    1.3164    0.3046 H   0  0  0  0  0  0  0  0  0  0  0  0
    3.7470   -1.0711    0.6918 H   0  0  0  0  0  0  0  0  0  0  0  0
    3.6300   -3.2225   -0.7235 H   0  0  0  0  0  0  0  0  0  0  0  0
   -1.9012   -2.6752    0.3559 H   0  0  0  0  0  0  0  0  0  0  0  0
   -0.8667   -2.6904   -1.0969 H   0  0  0  0  0  0  0  0  0  0  0  0
   -0.8660   -3.5700    0.0000 H   0  0  0  0  0  0  0  0  0  0  0  0
   -0.6991    0.9331   -0.1525 H   0  0  0  0  0  0  0  0  0  0  0  0
  1  2  1  0  0  0  0
  1 14  1  0  0  0  0
  1 15  1  0  0  0  0
  1 16  1  0  0  0  0
  2  3  1  0  0  0  0
  2 17  1  0  0  0  0
  2 18  1  0  0  0  0
  3 13  2  0  0  0  0
  3  4  1  0  0  0  0
  4  5  2  0  0  0  0
  4 19  1  0  0  0  0
  5  6  1  0  0  0  0
  5 20  1  0  0  0  0
  6  7  1  0  0  0  0
  6 10  2  0  0  0  0
  7  8  1  0  0  0  0
  8  9  2  0  0  0  0
  8 21  1  0  0  0  0
 10 11  1  0  0  0  0
 10 13  1  0  0  0  0
 11 12  1  0  0  0  0
 12 22  1  0  0  0  0
 12 23  1  0  0  0  0
 12 24  1  0  0  0  0
 13 25  1  0  0  0  0
M  END
$$$$
