
 OpenBabel03202621322D

 18 18  0  0  0  0  0  0  0  0999 V2000
   -2.1585   -2.6527    0.2773 O   0  0  0  0  0  0  0  0  0  0  0  0
   -1.0816   -2.0785    0.2348 C   0  0  0  0  0  0  0  0  0  0  0  0
   -0.9009   -0.7011    0.1984 N   0  0  0  0  0  0  0  0  0  0  0  0
   -2.0912    0.1035    0.0160 C   0  0  0  0  0  0  0  0  0  0  0  0
   -1.9148    1.6078    0.1569 C   0  0  0  0  0  0  0  0  0  0  0  0
   -0.5002    2.1297    0.1580 C   0  0  0  0  0  0  0  0  0  0  0  0
   -0.3001    3.3501    0.1940 O   0  0  0  0  0  0  0  0  0  0  0  0
    0.6631    1.1877    0.2623 C   0  0  0  0  0  0  0  0  0  0  0  0
    0.3499   -0.1775   -0.3103 C   0  0  0  0  0  0  0  0  0  0  0  0
   -0.1264   -2.6339    0.2427 H   0  0  0  0  0  0  0  0  0  0  0  0
   -2.8568   -0.2370    0.7229 H   0  0  0  0  0  0  0  0  0  0  0  0
   -2.4859   -0.1236   -0.9841 H   0  0  0  0  0  0  0  0  0  0  0  0
   -2.3922    1.9417    1.0855 H   0  0  0  0  0  0  0  0  0  0  0  0
   -2.4376    2.0992   -0.6707 H   0  0  0  0  0  0  0  0  0  0  0  0
    1.5054    1.6182   -0.2892 H   0  0  0  0  0  0  0  0  0  0  0  0
    0.9414    1.1061    1.3167 H   0  0  0  0  0  0  0  0  0  0  0  0
    1.1626   -0.8699   -0.0630 H   0  0  0  0  0  0  0  0  0  0  0  0
    0.2742   -0.1433   -1.4012 H   0  0  0  0  0  0  0  0  0  0  0  0
  1  2  2  0  0  0  0
  2  3  1  0  0  0  0
  2 10  1  0  0  0  0
  3  9  1  0  0  0  0
  3  4  1  0  0  0  0
  4  5  1  0  0  0  0
  4 11  1  0  0  0  0
  4 12  1  0  0  0  0
  5  6  1  0  0  0  0
  5 13  1  0  0  0  0
  5 14  1  0  0  0  0
  6  7  2  0  0  0  0
  6  8  1  0  0  0  0
  8  9  1  0  0  0  0
  8 15  1  0  0  0  0
  8 16  1  0  0  0  0
  9 17  1  0  0  0  0
  9 18  1  0  0  0  0
M  END
$$$$
