
 OpenBabel03202621282D

 14 14  0  0  1  0  0  0  0  0999 V2000
   -1.2601    1.2601    0.0000 C   0  0  0  0  0  0  0  0  0  0  0  0
   -0.3090    0.9511    0.0000 C   0  0  1  0  0  0  0  0  0  0  0  0
    0.5000    1.5388    0.0000 C   0  0  0  0  0  0  0  0  0  0  0  0
    1.3090    0.9511    0.0000 N   0  0  0  0  0  0  0  0  0  0  0  0
    2.2601    1.2601    0.0000 C   0  0  0  0  0  0  0  0  0  0  0  0
    3.0032    0.5909    0.0000 O   0  0  0  0  0  0  0  0  0  0  0  0
    2.4680    2.2382    0.0000 C   0  0  0  0  0  0  0  0  0  0  0  0
    1.7248    2.9074    0.0000 C   0  0  0  0  0  0  0  0  0  0  0  0
    1.9328    3.8855    0.0000 S   0  0  0  0  0  0  0  0  0  0  0  0
    1.1896    4.5546    0.0000 C   0  0  0  0  0  0  0  0  0  0  0  0
    1.3975    5.5328    0.0000 O   0  0  0  0  0  0  0  0  0  0  0  0
    1.0000   -0.0000    0.0000 C   0  0  0  0  0  0  0  0  0  0  0  0
    0.0000   -0.0000    0.0000 C   0  0  2  0  0  0  0  0  0  0  0  0
   -0.5878   -0.8090    0.0000 O   0  0  0  0  0  0  0  0  0  0  0  0
  2  1  1  1  0  0  0
  2  3  1  0  0  0  0
  2 13  1  0  0  0  0
  3  4  1  0  0  0  0
  4  5  1  0  0  0  0
  4 12  1  0  0  0  0
  5  6  2  0  0  0  0
  5  7  1  0  0  0  0
  7  8  1  0  0  0  0
  8  9  1  0  0  0  0
  9 10  1  0  0  0  0
 10 11  2  0  0  0  0
 12 13  1  0  0  0  0
 13 14  1  6  0  0  0
M  END
$$$$
