
 OpenBabel03202621362D

 14 13  0  0  0  0  0  0  0  0999 V2000
    3.4641   -1.0000    0.0000 C   0  0  0  0  0  0  0  0  0  0  0  0
    3.4641    0.0000    0.0000 S   0  0  0  0  0  0  0  0  0  0  0  0
    1.9827    0.9159    0.0109 C   0  0  0  0  0  0  0  0  0  0  0  0
    2.0341    2.1347    0.1124 O   0  0  0  0  0  0  0  0  0  0  0  0
    0.6768    0.1678   -0.0922 C   0  0  0  0  0  0  0  0  0  0  0  0
   -0.4872    1.1460   -0.1119 C   0  0  0  0  0  0  0  0  0  0  0  0
   -2.0112    0.2819   -0.4287 Cl  0  0  0  0  0  0  0  0  0  0  0  0
    2.8644   -1.2020    0.9110 H   0  0  0  0  0  0  0  0  0  0  0  0
    4.5224   -1.1692    0.2772 H   0  0  0  0  0  0  0  0  0  0  0  0
    3.4641   -2.0700    0.0000 H   0  0  0  0  0  0  0  0  0  0  0  0
    0.6897   -0.4303   -1.0141 H   0  0  0  0  0  0  0  0  0  0  0  0
    0.5773   -0.5035    0.7699 H   0  0  0  0  0  0  0  0  0  0  0  0
   -0.3700    1.9065   -0.8905 H   0  0  0  0  0  0  0  0  0  0  0  0
   -0.5884    1.6590    0.8500 H   0  0  0  0  0  0  0  0  0  0  0  0
  1  2  1  0  0  0  0
  1  8  1  0  0  0  0
  1  9  1  0  0  0  0
  1 10  1  0  0  0  0
  2  3  1  0  0  0  0
  3  4  2  0  0  0  0
  3  5  1  0  0  0  0
  5  6  1  0  0  0  0
  5 11  1  0  0  0  0
  5 12  1  0  0  0  0
  6  7  1  0  0  0  0
  6 13  1  0  0  0  0
  6 14  1  0  0  0  0
M  END
$$$$
