
 OpenBabel03202621312D

 22 22  0  0  0  0  0  0  0  0999 V2000
   -0.8660   -3.5000    0.0000 C   0  0  0  0  0  0  0  0  0  0  0  0
    0.0000   -3.0000    0.0000 S   0  0  0  0  0  0  0  0  0  0  0  0
    0.7535   -1.5041    0.0000 C   0  0  0  0  0  0  0  0  0  0  0  0
    1.9633   -1.3359   -0.0000 O   0  0  0  0  0  0  0  0  0  0  0  0
   -0.2730   -0.6786    0.0000 N   0  0  0  0  0  0  0  0  0  0  0  0
   -0.4112    0.6649    0.0000 C   0  0  0  0  0  0  0  0  0  0  0  0
   -1.7567    1.0167    0.0000 C   0  0  0  0  0  0  0  0  0  0  0  0
   -2.0939    2.3434    0.0000 C   0  0  0  0  0  0  0  0  0  0  0  0
   -3.5138    2.6780    0.0000 N   0  3  0  0  0  0  0  0  0  0  0  0
   -3.8254    3.8719   -0.0000 O   0  0  0  0  0  0  0  0  0  0  0  0
   -4.3296    1.7355   -0.0000 O   0  5  0  0  0  0  0  0  0  0  0  0
   -1.0784    3.3130    0.0000 C   0  0  0  0  0  0  0  0  0  0  0  0
    0.2761    2.9291    0.0000 C   0  0  0  0  0  0  0  0  0  0  0  0
    0.6140    1.5920    0.0000 C   0  0  0  0  0  0  0  0  0  0  0  0
    1.9014    1.2304    0.0000 F   0  0  0  0  0  0  0  0  0  0  0  0
   -1.7132   -2.8139   -0.0000 H   0  0  0  0  0  0  0  0  0  0  0  0
   -0.6071   -4.5627   -0.0000 H   0  0  0  0  0  0  0  0  0  0  0  0
   -1.7926   -4.0350    0.0000 H   0  0  0  0  0  0  0  0  0  0  0  0
   -1.1378   -1.1881    0.0000 H   0  0  0  0  0  0  0  0  0  0  0  0
   -2.5264    0.2440    0.0000 H   0  0  0  0  0  0  0  0  0  0  0  0
   -1.3213    4.3679    0.0000 H   0  0  0  0  0  0  0  0  0  0  0  0
    1.0781    3.6616   -0.0000 H   0  0  0  0  0  0  0  0  0  0  0  0
  1  2  1  0  0  0  0
  1 16  1  0  0  0  0
  1 17  1  0  0  0  0
  1 18  1  0  0  0  0
  2  3  1  0  0  0  0
  3  4  2  0  0  0  0
  3  5  1  0  0  0  0
  5  6  1  0  0  0  0
  5 19  1  0  0  0  0
  6 14  2  0  0  0  0
  6  7  1  0  0  0  0
  7  8  2  0  0  0  0
  7 20  1  0  0  0  0
  8  9  1  0  0  0  0
  8 12  1  0  0  0  0
  9 10  2  0  0  0  0
  9 11  1  0  0  0  0
 12 13  2  0  0  0  0
 12 21  1  0  0  0  0
 13 14  1  0  0  0  0
 13 22  1  0  0  0  0
 14 15  1  0  0  0  0
M  CHG  2   9   1  11  -1
M  END
$$$$
