
 OpenBabel03202621302D

 23 25  0  0  0  0  0  0  0  0999 V2000
   -1.6419   -2.2281   -0.0001 O   0  5  0  0  0  0  0  0  0  0  0  0
   -1.5877   -0.9608   -0.0000 C   0  0  0  0  0  0  0  0  0  0  0  0
   -2.6674   -0.1511    0.0000 C   0  0  0  0  0  0  0  0  0  0  0  0
   -2.7496    1.2043    0.0003 O   0  0  0  0  0  0  0  0  0  0  0  0
   -1.5656    1.9285   -0.0007 C   0  0  0  0  0  0  0  0  0  0  0  0
   -0.2869    1.1949    0.0001 C   0  0  0  0  0  0  0  0  0  0  0  0
    0.9560    1.8432    0.0001 C   0  0  0  0  0  0  0  0  0  0  0  0
    2.1412    1.1142    0.0001 C   0  0  0  0  0  0  0  0  0  0  0  0
    3.3821    1.7604    0.0000 C   0  0  0  0  0  0  0  0  0  0  0  0
    4.5492    1.0130    0.0000 C   0  0  0  0  0  0  0  0  0  0  0  0
    4.4698   -0.3790   -0.0000 C   0  0  0  0  0  0  0  0  0  0  0  0
    6.2185   -1.5022   -0.0000 I   0  0  0  0  0  0  0  0  0  0  0  0
    3.2287   -1.0207    0.0001 C   0  0  0  0  0  0  0  0  0  0  0  0
    2.0511   -0.2904    0.0000 C   0  0  0  0  0  0  0  0  0  0  0  0
    0.8775   -0.9219    0.0000 N   0  0  0  0  0  0  0  0  0  0  0  0
   -0.2841   -0.1995    0.0001 C   0  0  0  0  0  0  0  0  0  0  0  0
   -3.6668   -0.5713    0.0000 H   0  0  0  0  0  0  0  0  0  0  0  0
   -2.1847    2.8410    0.0002 H   0  0  0  0  0  0  0  0  0  0  0  0
   -1.0567    2.9219    0.0002 H   0  0  0  0  0  0  0  0  0  0  0  0
    1.0054    2.9271   -0.0000 H   0  0  0  0  0  0  0  0  0  0  0  0
    3.4332    2.8459    0.0000 H   0  0  0  0  0  0  0  0  0  0  0  0
    5.5075    1.5257   -0.0000 H   0  0  0  0  0  0  0  0  0  0  0  0
    3.1494   -2.1038   -0.0000 H   0  0  0  0  0  0  0  0  0  0  0  0
  1  2  1  0  0  0  0
  2 16  1  0  0  0  0
  2  3  2  0  0  0  0
  3  4  1  0  0  0  0
  3 17  1  0  0  0  0
  4  5  1  0  0  0  0
  5  6  1  0  0  0  0
  5 18  1  0  0  0  0
  5 19  1  0  0  0  0
  6 16  2  0  0  0  0
  6  7  1  0  0  0  0
  7  8  2  0  0  0  0
  7 20  1  0  0  0  0
  8 14  1  0  0  0  0
  8  9  1  0  0  0  0
  9 10  2  0  0  0  0
  9 21  1  0  0  0  0
 10 11  1  0  0  0  0
 10 22  1  0  0  0  0
 11 12  1  0  0  0  0
 11 13  2  0  0  0  0
 13 14  1  0  0  0  0
 13 23  1  0  0  0  0
 14 15  2  0  0  0  0
 15 16  1  0  0  0  0
M  CHG  1   1  -1
M  END
$$$$
