
 OpenBabel03202621392D

 35 36  0  0  0  0  0  0  0  0999 V2000
    0.8660   -2.5000    0.0000 C   0  0  0  0  0  0  0  0  0  0  0  0
    0.8660   -1.5000    0.0000 O   0  0  0  0  0  0  0  0  0  0  0  0
   -0.1583   -0.7816    0.5438 C   0  0  0  0  0  0  0  0  0  0  0  0
   -1.2059   -1.2948    1.3102 C   0  0  0  0  0  0  0  0  0  0  0  0
   -2.1279   -0.4228    1.8921 C   0  0  0  0  0  0  0  0  0  0  0  0
   -2.0314    0.9536    1.6743 C   0  0  0  0  0  0  0  0  0  0  0  0
   -1.0531    1.4654    0.8114 C   0  0  0  0  0  0  0  0  0  0  0  0
   -1.0749    2.8986    0.3556 C   0  0  0  0  0  0  0  0  0  0  0  0
   -2.2974    3.3580   -0.2875 N   0  0  0  0  0  0  0  0  0  0  0  0
   -3.2520    2.6700   -0.9859 C   0  0  0  0  0  0  0  0  0  0  0  0
   -4.1760    3.2597   -1.5380 O   0  0  0  0  0  0  0  0  0  0  0  0
   -3.0834    1.3175   -1.0103 O   0  0  0  0  0  0  0  0  0  0  0  0
   -4.2781    0.5905   -0.8854 C   0  0  0  0  0  0  0  0  0  0  0  0
   -4.4327   -0.5984   -1.4824 C   0  0  0  0  0  0  0  0  0  0  0  0
   -5.5038   -1.4501   -1.3666 O   0  0  0  0  0  0  0  0  0  0  0  0
   -6.4111   -1.1462   -0.2983 C   0  0  0  0  0  0  0  0  0  0  0  0
   -6.6998    0.3346   -0.1740 C   0  0  0  0  0  0  0  0  0  0  0  0
   -5.3779    1.0176    0.0328 C   0  0  0  0  0  0  0  0  0  0  0  0
   -5.2136    1.8640    0.9033 O   0  0  0  0  0  0  0  0  0  0  0  0
   -0.0901    0.5912    0.2947 C   0  0  0  0  0  0  0  0  0  0  0  0
    1.3377   -2.6980    0.9896 H   0  0  0  0  0  0  0  0  0  0  0  0
    1.6512   -2.6744   -0.7626 H   0  0  0  0  0  0  0  0  0  0  0  0
    0.8660   -3.5700    0.0000 H   0  0  0  0  0  0  0  0  0  0  0  0
   -1.3108   -2.3624    1.4768 H   0  0  0  0  0  0  0  0  0  0  0  0
   -2.9449   -0.8142    2.4925 H   0  0  0  0  0  0  0  0  0  0  0  0
   -2.7849    1.6162    2.0983 H   0  0  0  0  0  0  0  0  0  0  0  0
   -0.2619    3.0975   -0.3526 H   0  0  0  0  0  0  0  0  0  0  0  0
   -0.9046    3.5504    1.2205 H   0  0  0  0  0  0  0  0  0  0  0  0
   -2.4479    4.3558   -0.3272 H   0  0  0  0  0  0  0  0  0  0  0  0
   -3.6879   -1.0218   -2.1449 H   0  0  0  0  0  0  0  0  0  0  0  0
   -5.9960   -1.5492    0.6348 H   0  0  0  0  0  0  0  0  0  0  0  0
   -7.3420   -1.6866   -0.4984 H   0  0  0  0  0  0  0  0  0  0  0  0
   -7.3538    0.5338    0.6772 H   0  0  0  0  0  0  0  0  0  0  0  0
   -7.1539    0.7410   -1.0831 H   0  0  0  0  0  0  0  0  0  0  0  0
    0.7094    0.9676   -0.3410 H   0  0  0  0  0  0  0  0  0  0  0  0
  1  2  1  0  0  0  0
  1 21  1  0  0  0  0
  1 22  1  0  0  0  0
  1 23  1  0  0  0  0
  2  3  1  0  0  0  0
  3 20  2  0  0  0  0
  3  4  1  0  0  0  0
  4  5  2  0  0  0  0
  4 24  1  0  0  0  0
  5  6  1  0  0  0  0
  5 25  1  0  0  0  0
  6  7  2  0  0  0  0
  6 26  1  0  0  0  0
  7  8  1  0  0  0  0
  7 20  1  0  0  0  0
  8  9  1  0  0  0  0
  8 27  1  0  0  0  0
  8 28  1  0  0  0  0
  9 10  1  0  0  0  0
  9 29  1  0  0  0  0
 10 11  2  0  0  0  0
 10 12  1  0  0  0  0
 12 13  1  0  0  0  0
 13 18  1  0  0  0  0
 13 14  2  0  0  0  0
 14 15  1  0  0  0  0
 14 30  1  0  0  0  0
 15 16  1  0  0  0  0
 16 17  1  0  0  0  0
 16 31  1  0  0  0  0
 16 32  1  0  0  0  0
 17 18  1  0  0  0  0
 17 33  1  0  0  0  0
 17 34  1  0  0  0  0
 18 19  2  0  0  0  0
 20 35  1  0  0  0  0
M  END
$$$$
