
 OpenBabel03202621392D

 16 16  0  0  0  0  0  0  0  0999 V2000
   -0.1280   -2.6736    0.0000 C   0  0  0  0  0  0  0  0  0  0  0  0
    0.2788   -1.7601    0.0000 N   0  0  0  0  0  0  0  0  0  0  0  0
    1.6781   -1.5487   -0.0000 C   0  0  0  0  0  0  0  0  0  0  0  0
    2.3041   -0.4984   -0.0000 O   0  0  0  0  0  0  0  0  0  0  0  0
   -0.5369   -0.5903   -0.0000 C   0  0  0  0  0  0  0  0  0  0  0  0
   -1.9284   -0.4755   -0.0000 C   0  0  0  0  0  0  0  0  0  0  0  0
   -2.2450    0.8989   -0.0000 C   0  0  0  0  0  0  0  0  0  0  0  0
   -1.0365    1.5496   -0.0000 C   0  0  0  0  0  0  0  0  0  0  0  0
   -0.0085    0.6643   -0.0000 O   0  0  0  0  0  0  0  0  0  0  0  0
   -1.2185   -2.6301    0.0000 H   0  0  0  0  0  0  0  0  0  0  0  0
    0.6697   -3.4306    0.0000 H   0  0  0  0  0  0  0  0  0  0  0  0
   -0.5633   -3.6511    0.0000 H   0  0  0  0  0  0  0  0  0  0  0  0
    2.2608   -2.4874   -0.0000 H   0  0  0  0  0  0  0  0  0  0  0  0
   -2.6488   -1.2843    0.0000 H   0  0  0  0  0  0  0  0  0  0  0  0
   -3.2322    1.3283    0.0000 H   0  0  0  0  0  0  0  0  0  0  0  0
   -0.7548    2.5936   -0.0000 H   0  0  0  0  0  0  0  0  0  0  0  0
  1  2  1  0  0  0  0
  1 10  1  0  0  0  0
  1 11  1  0  0  0  0
  1 12  1  0  0  0  0
  2  3  1  0  0  0  0
  2  5  1  0  0  0  0
  3  4  2  0  0  0  0
  3 13  1  0  0  0  0
  5  9  1  0  0  0  0
  5  6  2  0  0  0  0
  6  7  1  0  0  0  0
  6 14  1  0  0  0  0
  7  8  2  0  0  0  0
  7 15  1  0  0  0  0
  8  9  1  0  0  0  0
  8 16  1  0  0  0  0
M  END
$$$$
