
 OpenBabel03202621352D

 39 40  0  0  1  0  0  0  0  0999 V2000
   -2.6456    1.4067    0.0000 C   0  0  0  0  0  0  0  0  0  0  0  0
   -2.6456    0.4067    0.0000 C   0  0  0  0  0  0  0  0  0  0  0  0
   -1.9036   -0.7124   -0.8174 C   0  0  1  0  0  0  0  0  0  0  0  0
   -2.1547   -2.1732   -0.2979 C   0  0  0  0  0  0  0  0  0  0  0  0
   -1.2764   -2.9082    0.1232 O   0  0  0  0  0  0  0  0  0  0  0  0
   -3.4309   -2.7350   -0.4028 N   0  0  0  0  0  0  0  0  0  0  0  0
   -4.7043   -2.4225   -0.9352 C   0  0  0  0  0  0  0  0  0  0  0  0
   -5.5432   -3.3119   -1.0800 O   0  0  0  0  0  0  0  0  0  0  0  0
   -4.9352   -0.9852   -1.2961 C   0  0  0  0  0  0  0  0  0  0  0  0
   -6.1208   -0.1035   -1.0246 C   0  0  0  0  0  0  0  0  0  0  0  0
   -5.9191    1.3012   -1.0637 C   0  0  0  0  0  0  0  0  0  0  0  0
   -6.8297    2.1918   -0.5019 C   0  0  0  0  0  0  0  0  0  0  0  0
   -8.0034    1.6946    0.0401 C   0  0  0  0  0  0  0  0  0  0  0  0
   -8.2359    0.3117    0.0486 C   0  0  0  0  0  0  0  0  0  0  0  0
   -7.2933   -0.5817   -0.4643 C   0  0  0  0  0  0  0  0  0  0  0  0
   -0.4731   -0.3588   -0.7251 N   0  0  0  0  0  0  0  0  0  0  0  0
   -0.1663    0.9010   -1.1714 C   0  0  0  0  0  0  0  0  0  0  0  0
    0.1691    1.6092    0.0000 C   0  0  0  0  0  0  0  0  0  0  0  0
    0.5759    2.5227    0.0000 C   0  0  0  0  0  0  0  0  0  0  0  0
    0.4480    0.6524    0.9475 N   0  0  0  0  0  0  0  0  0  0  0  0
    0.1807   -0.5472    0.4436 N   0  0  0  0  0  0  0  0  0  0  0  0
   -2.8986    1.5631   -1.0708 H   0  0  0  0  0  0  0  0  0  0  0  0
   -3.5679    1.6338    0.5948 H   0  0  0  0  0  0  0  0  0  0  0  0
   -2.6456    2.4767    0.0000 H   0  0  0  0  0  0  0  0  0  0  0  0
   -3.3984   -0.1062    0.6184 H   0  0  0  0  0  0  0  0  0  0  0  0
   -2.0188    0.2833    0.9134 H   0  0  0  0  0  0  0  0  0  0  0  0
   -2.1499   -0.7088   -1.8760 H   0  0  0  0  0  0  0  0  0  0  0  0
   -3.3953   -3.7027   -0.0886 H   0  0  0  0  0  0  0  0  0  0  0  0
   -4.3354   -0.6680   -2.1526 H   0  0  0  0  0  0  0  0  0  0  0  0
   -4.4891   -0.6397   -0.4043 H   0  0  0  0  0  0  0  0  0  0  0  0
   -4.9933    1.7226   -1.4504 H   0  0  0  0  0  0  0  0  0  0  0  0
   -6.6100    3.2570   -0.4613 H   0  0  0  0  0  0  0  0  0  0  0  0
   -8.7303    2.3709    0.4803 H   0  0  0  0  0  0  0  0  0  0  0  0
   -9.1468   -0.0677    0.4931 H   0  0  0  0  0  0  0  0  0  0  0  0
   -7.4528   -1.6521   -0.3495 H   0  0  0  0  0  0  0  0  0  0  0  0
   -0.4231    1.2516   -2.1641 H   0  0  0  0  0  0  0  0  0  0  0  0
    1.4443    2.3833   -0.6907 H   0  0  0  0  0  0  0  0  0  0  0  0
   -0.2520    3.1154   -0.4546 H   0  0  0  0  0  0  0  0  0  0  0  0
    1.0112    3.5002    0.0000 H   0  0  0  0  0  0  0  0  0  0  0  0
  1  2  1  0  0  0  0
  1 22  1  0  0  0  0
  1 23  1  0  0  0  0
  1 24  1  0  0  0  0
  2 25  1  0  0  0  0
  2 26  1  0  0  0  0
  3  2  1  0  0  0  0
  3  4  1  0  0  0  0
  3 16  1  0  0  0  0
  3 27  1  1  0  0  0
  4  5  2  0  0  0  0
  4  6  1  0  0  0  0
  6  7  1  0  0  0  0
  6 28  1  0  0  0  0
  7  8  2  0  0  0  0
  7  9  1  0  0  0  0
  9 10  1  0  0  0  0
  9 29  1  0  0  0  0
  9 30  1  0  0  0  0
 10 15  2  0  0  0  0
 10 11  1  0  0  0  0
 11 12  2  0  0  0  0
 11 31  1  0  0  0  0
 12 13  1  0  0  0  0
 12 32  1  0  0  0  0
 13 14  2  0  0  0  0
 13 33  1  0  0  0  0
 14 15  1  0  0  0  0
 14 34  1  0  0  0  0
 15 35  1  0  0  0  0
 16 21  1  0  0  0  0
 16 17  1  0  0  0  0
 17 18  2  0  0  0  0
 17 36  1  0  0  0  0
 18 19  1  0  0  0  0
 18 20  1  0  0  0  0
 19 37  1  0  0  0  0
 19 38  1  0  0  0  0
 19 39  1  0  0  0  0
 20 21  2  0  0  0  0
M  END
$$$$
