
 OpenBabel03202621372D

 26 26  0  0  0  0  0  0  0  0999 V2000
   -0.8660   -3.5000    0.0000 C   0  0  0  0  0  0  0  0  0  0  0  0
    0.0000   -3.0000    0.0000 S   0  0  0  0  0  0  0  0  0  0  0  0
   -0.1569   -2.3713   -1.6582 C   0  0  0  0  0  0  0  0  0  0  0  0
    0.4387   -3.0985   -3.0346 S   0  0  0  0  0  0  0  0  0  0  0  0
   -1.0881   -1.3577   -1.7162 N   0  0  0  0  0  0  0  0  0  0  0  0
   -1.1529   -0.3051   -0.7698 C   0  0  0  0  0  0  0  0  0  0  0  0
   -2.3361    0.4666   -0.7959 C   0  0  0  0  0  0  0  0  0  0  0  0
   -2.3861    1.7077   -0.1780 C   0  0  0  0  0  0  0  0  0  0  0  0
   -1.2421    2.1806    0.4324 C   0  0  0  0  0  0  0  0  0  0  0  0
   -1.0847    3.6106    0.8164 C   0  0  0  0  0  0  0  0  0  0  0  0
   -0.0795    4.1220    1.2641 O   0  0  0  0  0  0  0  0  0  0  0  0
   -2.1719    4.3516    0.5065 O   0  0  0  0  0  0  0  0  0  0  0  0
   -0.1274    1.3236    0.5611 C   0  0  0  0  0  0  0  0  0  0  0  0
    0.0000    0.0000    0.0000 C   0  0  0  0  0  0  0  0  0  0  0  0
    0.8660   -0.5000    0.0000 C   0  0  0  0  0  0  0  0  0  0  0  0
   -1.2876   -3.1171    0.9502 H   0  0  0  0  0  0  0  0  0  0  0  0
   -0.4780   -4.5199    0.1923 H   0  0  0  0  0  0  0  0  0  0  0  0
   -1.7926   -4.0350    0.0000 H   0  0  0  0  0  0  0  0  0  0  0  0
   -1.6147   -1.2497   -2.5753 H   0  0  0  0  0  0  0  0  0  0  0  0
   -3.2123    0.1114   -1.3332 H   0  0  0  0  0  0  0  0  0  0  0  0
   -3.2851    2.3164   -0.2498 H   0  0  0  0  0  0  0  0  0  0  0  0
   -1.8776    5.2727    0.6753 H   0  0  0  0  0  0  0  0  0  0  0  0
    0.7630    1.7593    1.0365 H   0  0  0  0  0  0  0  0  0  0  0  0
    1.1463   -0.4456    1.0808 H   0  0  0  0  0  0  0  0  0  0  0  0
    1.4856    0.1659   -0.6495 H   0  0  0  0  0  0  0  0  0  0  0  0
    1.7926   -1.0350    0.0000 H   0  0  0  0  0  0  0  0  0  0  0  0
  1  2  1  0  0  0  0
  1 16  1  0  0  0  0
  1 17  1  0  0  0  0
  1 18  1  0  0  0  0
  2  3  1  0  0  0  0
  3  4  2  0  0  0  0
  3  5  1  0  0  0  0
  5  6  1  0  0  0  0
  5 19  1  0  0  0  0
  6 14  2  0  0  0  0
  6  7  1  0  0  0  0
  7  8  2  0  0  0  0
  7 20  1  0  0  0  0
  8  9  1  0  0  0  0
  8 21  1  0  0  0  0
  9 10  1  0  0  0  0
  9 13  2  0  0  0  0
 10 11  2  0  0  0  0
 10 12  1  0  0  0  0
 12 22  1  0  0  0  0
 13 14  1  0  0  0  0
 13 23  1  0  0  0  0
 14 15  1  0  0  0  0
 15 24  1  0  0  0  0
 15 25  1  0  0  0  0
 15 26  1  0  0  0  0
M  END
$$$$
