
 OpenBabel03202621312D

 19 19  0  0  0  0  0  0  0  0999 V2000
    0.2788   -1.7601    0.0000 C   0  0  0  0  0  0  0  0  0  0  0  0
   -0.3090   -0.9511    0.0000 N   0  0  0  0  0  0  0  0  0  0  0  0
   -1.7033   -0.9858   -0.0000 C   0  0  0  0  0  0  0  0  0  0  0  0
   -2.1489    0.3013   -0.0000 C   0  0  0  0  0  0  0  0  0  0  0  0
   -1.0937    1.1378   -0.0000 N   0  0  0  0  0  0  0  0  0  0  0  0
    0.0154    0.4261   -0.0000 C   0  0  0  0  0  0  0  0  0  0  0  0
    1.3944    1.0171    0.0000 C   0  0  0  0  0  0  0  0  0  0  0  0
    1.6059    2.4419   -0.0000 N   0  0  0  0  0  0  0  0  0  0  0  0
    0.7401    3.5003    0.0000 C   0  0  0  0  0  0  0  0  0  0  0  0
   -0.4708    3.5718    0.0000 O   0  0  0  0  0  0  0  0  0  0  0  0
   -0.3152   -2.6924    0.0000 H   0  0  0  0  0  0  0  0  0  0  0  0
    1.3432   -1.5426    0.0000 H   0  0  0  0  0  0  0  0  0  0  0  0
    0.9077   -2.6257    0.0000 H   0  0  0  0  0  0  0  0  0  0  0  0
   -2.2611   -1.9150    0.0000 H   0  0  0  0  0  0  0  0  0  0  0  0
   -3.1670    0.6620   -0.0000 H   0  0  0  0  0  0  0  0  0  0  0  0
    1.9053    0.0492   -0.0000 H   0  0  0  0  0  0  0  0  0  0  0  0
    2.5000    0.9411   -0.0000 H   0  0  0  0  0  0  0  0  0  0  0  0
    2.5706    2.7396   -0.0000 H   0  0  0  0  0  0  0  0  0  0  0  0
    1.3233    4.4348   -0.0000 H   0  0  0  0  0  0  0  0  0  0  0  0
  1  2  1  0  0  0  0
  1 11  1  0  0  0  0
  1 12  1  0  0  0  0
  1 13  1  0  0  0  0
  2  6  1  0  0  0  0
  2  3  1  0  0  0  0
  3  4  2  0  0  0  0
  3 14  1  0  0  0  0
  4  5  1  0  0  0  0
  4 15  1  0  0  0  0
  5  6  2  0  0  0  0
  6  7  1  0  0  0  0
  7  8  1  0  0  0  0
  7 16  1  0  0  0  0
  7 17  1  0  0  0  0
  8  9  1  0  0  0  0
  8 18  1  0  0  0  0
  9 10  2  0  0  0  0
  9 19  1  0  0  0  0
M  END
$$$$
