
 OpenBabel03202621382D

 15 14  0  0  1  0  0  0  0  0999 V2000
    4.2509   -0.5724   -0.4086 O   0  0  0  0  0  0  0  0  0  0  0  0
    4.5984    0.5469   -0.0561 C   0  0  0  0  0  0  0  0  0  0  0  0
    3.4661    1.7692    0.4925 S   0  0  0  0  0  0  0  0  0  0  0  0
    1.9080    0.9767   -0.0453 C   0  0  0  0  0  0  0  0  0  0  0  0
    0.6967    1.8606    0.2545 C   0  0  1  0  0  0  0  0  0  0  0  0
    0.7579    3.0578   -0.5332 O   0  0  0  0  0  0  0  0  0  0  0  0
   -0.6069    1.1262   -0.0551 C   0  0  0  0  0  0  0  0  0  0  0  0
   -1.5685    1.6197   -0.6276 O   0  0  0  0  0  0  0  0  0  0  0  0
   -0.6745   -0.1238    0.4336 O   0  0  0  0  0  0  0  0  0  0  0  0
    5.6579    0.8522   -0.0535 H   0  0  0  0  0  0  0  0  0  0  0  0
    1.9728    0.7867   -1.1230 H   0  0  0  0  0  0  0  0  0  0  0  0
    1.8241    0.0149    0.4712 H   0  0  0  0  0  0  0  0  0  0  0  0
    0.6621    2.1533    1.3101 H   0  0  0  0  0  0  0  0  0  0  0  0
   -0.1465    3.4265   -0.5553 H   0  0  0  0  0  0  0  0  0  0  0  0
   -1.5648   -0.4425    0.1727 H   0  0  0  0  0  0  0  0  0  0  0  0
  1  2  2  0  0  0  0
  2  3  1  0  0  0  0
  2 10  1  0  0  0  0
  3  4  1  0  0  0  0
  4  5  1  0  0  0  0
  4 11  1  0  0  0  0
  4 12  1  0  0  0  0
  5  6  1  0  0  0  0
  5  7  1  0  0  0  0
  5 13  1  1  0  0  0
  6 14  1  0  0  0  0
  7  8  2  0  0  0  0
  7  9  1  0  0  0  0
  9 15  1  0  0  0  0
M  END
$$$$
