
 OpenBabel03202621322D

 23 23  0  0  0  0  0  0  0  0999 V2000
    4.3301   -1.5000    0.0000 C   0  0  0  0  0  0  0  0  0  0  0  0
    4.3301   -0.5000    0.0000 S   0  0  0  0  0  0  0  0  0  0  0  0
    2.6599    0.0333    0.4505 C   0  0  0  0  0  0  0  0  0  0  0  0
    1.8142    0.0288   -0.6904 O   0  0  0  0  0  0  0  0  0  0  0  0
    0.5298    0.5848   -0.4220 C   0  0  0  0  0  0  0  0  0  0  0  0
   -0.5160   -0.4728   -0.1678 C   0  0  0  0  0  0  0  0  0  0  0  0
   -0.1975   -1.8346   -0.0627 C   0  0  0  0  0  0  0  0  0  0  0  0
   -1.1932   -2.7837    0.1721 C   0  0  0  0  0  0  0  0  0  0  0  0
   -2.5208   -2.3800    0.2963 C   0  0  0  0  0  0  0  0  0  0  0  0
   -2.8547   -1.0320    0.1900 C   0  0  0  0  0  0  0  0  0  0  0  0
   -1.8580   -0.0833   -0.0376 C   0  0  0  0  0  0  0  0  0  0  0  0
    4.0426   -1.6805   -1.0554 H   0  0  0  0  0  0  0  0  0  0  0  0
    5.4205   -1.6708    0.0803 H   0  0  0  0  0  0  0  0  0  0  0  0
    4.3301   -2.5700    0.0000 H   0  0  0  0  0  0  0  0  0  0  0  0
    2.7593    1.0644    0.8100 H   0  0  0  0  0  0  0  0  0  0  0  0
    2.2453   -0.5741    1.2632 H   0  0  0  0  0  0  0  0  0  0  0  0
    0.5645    1.2911    0.4169 H   0  0  0  0  0  0  0  0  0  0  0  0
    0.2413    1.1461   -1.3176 H   0  0  0  0  0  0  0  0  0  0  0  0
    0.8291   -2.1753   -0.1743 H   0  0  0  0  0  0  0  0  0  0  0  0
   -0.9327   -3.8339    0.2518 H   0  0  0  0  0  0  0  0  0  0  0  0
   -3.2978   -3.1220    0.4726 H   0  0  0  0  0  0  0  0  0  0  0  0
   -3.8921   -0.7220    0.2773 H   0  0  0  0  0  0  0  0  0  0  0  0
   -2.1361    0.9651   -0.1234 H   0  0  0  0  0  0  0  0  0  0  0  0
  1  2  1  0  0  0  0
  1 12  1  0  0  0  0
  1 13  1  0  0  0  0
  1 14  1  0  0  0  0
  2  3  1  0  0  0  0
  3  4  1  0  0  0  0
  3 15  1  0  0  0  0
  3 16  1  0  0  0  0
  4  5  1  0  0  0  0
  5  6  1  0  0  0  0
  5 17  1  0  0  0  0
  5 18  1  0  0  0  0
  6 11  2  0  0  0  0
  6  7  1  0  0  0  0
  7  8  2  0  0  0  0
  7 19  1  0  0  0  0
  8  9  1  0  0  0  0
  8 20  1  0  0  0  0
  9 10  2  0  0  0  0
  9 21  1  0  0  0  0
 10 11  1  0  0  0  0
 10 22  1  0  0  0  0
 11 23  1  0  0  0  0
M  END
$$$$
