
 OpenBabel03202621282D

 17 17  0  0  1  0  0  0  0  0999 V2000
    2.9890   -0.2091    0.0000 C   0  0  0  0  0  0  0  0  0  0  0  0
    2.5823    0.7045    0.0000 S   0  0  0  0  0  0  0  0  0  0  0  0
    1.5878    0.8090    0.0000 C   0  0  2  0  0  0  0  0  0  0  0  0
    1.1810    1.7226    0.0000 C   0  0  0  0  0  0  0  0  0  0  0  0
    1.7688    2.5316    0.0000 O   0  0  0  0  0  0  0  0  0  0  0  0
    1.0000   -0.0000    0.0000 C   0  0  1  0  0  0  0  0  0  0  0  0
    1.3090   -0.9511    0.0000 C   0  0  0  0  0  0  0  0  0  0  0  0
    0.5000   -1.5388    0.0000 C   0  0  0  0  0  0  0  0  0  0  0  0
   -0.3090   -0.9511    0.0000 C   0  0  0  0  0  0  0  0  0  0  0  0
   -0.0000   -0.0000    0.0000 N   0  0  0  0  0  0  0  0  0  0  0  0
   -0.5878    0.8090    0.0000 C   0  0  0  0  0  0  0  0  0  0  0  0
   -0.1810    1.7226    0.0000 O   0  0  0  0  0  0  0  0  0  0  0  0
   -1.5823    0.7045    0.0000 O   0  0  0  0  0  0  0  0  0  0  0  0
   -1.9890   -0.2091    0.0000 C   0  0  0  0  0  0  0  0  0  0  0  0
   -1.8845   -1.2036    0.0000 C   0  0  0  0  0  0  0  0  0  0  0  0
   -1.0755   -0.6158    0.0000 C   0  0  0  0  0  0  0  0  0  0  0  0
   -2.9836   -0.3136    0.0000 C   0  0  0  0  0  0  0  0  0  0  0  0
  1  2  1  0  0  0  0
  2  3  1  0  0  0  0
  3  4  1  1  0  0  0
  4  5  1  0  0  0  0
  6  3  1  1  0  0  0
  6  7  1  0  0  0  0
  6 10  1  0  0  0  0
  7  8  1  0  0  0  0
  8  9  1  0  0  0  0
  9 10  1  0  0  0  0
 10 11  1  0  0  0  0
 11 12  2  0  0  0  0
 11 13  1  0  0  0  0
 13 14  1  0  0  0  0
 14 15  1  0  0  0  0
 14 16  1  0  0  0  0
 14 17  1  0  0  0  0
M  END
$$$$
