
 OpenBabel03202621392D

 17 17  0  0  0  0  0  0  0  0999 V2000
    3.5469    2.3736    0.2866 C   0  0  0  0  0  0  0  0  0  0  0  0
    2.3951    2.5523   -1.0898 S   0  0  0  0  0  0  0  0  0  0  0  0
    0.9328    1.9380   -0.3275 C   0  0  0  0  0  0  0  0  0  0  0  0
    0.0839    2.7169    0.0875 O   0  0  0  0  0  0  0  0  0  0  0  0
    0.7956    0.4933   -0.2829 C   0  0  0  0  0  0  0  0  0  0  0  0
    1.7481   -0.5335   -0.5025 C   0  0  0  0  0  0  0  0  0  0  0  0
    1.2451   -1.7622   -0.3581 N   0  0  0  0  0  0  0  0  0  0  0  0
   -0.0438   -1.5323   -0.0579 N   0  0  0  0  0  0  0  0  0  0  0  0
   -0.3661   -0.2040    0.0000 C   0  0  0  0  0  0  0  0  0  0  0  0
   -1.6181    0.2055    0.2841 N   0  0  0  0  0  0  0  0  0  0  0  0
    3.0369    2.1874    1.2353 H   0  0  0  0  0  0  0  0  0  0  0  0
    4.1410    3.2862    0.3822 H   0  0  0  0  0  0  0  0  0  0  0  0
    4.2272    1.5424    0.0808 H   0  0  0  0  0  0  0  0  0  0  0  0
    2.7971   -0.4420   -0.7529 H   0  0  0  0  0  0  0  0  0  0  0  0
   -0.6531   -2.3250    0.1032 H   0  0  0  0  0  0  0  0  0  0  0  0
   -1.8474    1.2021    0.2599 H   0  0  0  0  0  0  0  0  0  0  0  0
   -2.4321   -0.4027    0.3024 H   0  0  0  0  0  0  0  0  0  0  0  0
  1  2  1  0  0  0  0
  1 11  1  0  0  0  0
  1 12  1  0  0  0  0
  1 13  1  0  0  0  0
  2  3  1  0  0  0  0
  3  4  2  0  0  0  0
  3  5  1  0  0  0  0
  5  9  2  0  0  0  0
  5  6  1  0  0  0  0
  6  7  2  0  0  0  0
  6 14  1  0  0  0  0
  7  8  1  0  0  0  0
  8  9  1  0  0  0  0
  8 15  1  0  0  0  0
  9 10  1  0  0  0  0
 10 16  1  0  0  0  0
 10 17  1  0  0  0  0
M  END
$$$$
