
 OpenBabel03202621392D

 19 20  0  0  0  0  0  0  0  0999 V2000
    1.7321    0.0000    0.0000 C   0  0  0  0  0  0  0  0  0  0  0  0
    0.8660   -0.5000    0.0000 C   0  0  0  0  0  0  0  0  0  0  0  0
    0.8280   -2.0132   -0.0000 C   0  0  0  0  0  0  0  0  0  0  0  0
   -0.3435   -2.6882    0.0000 C   0  0  0  0  0  0  0  0  0  0  0  0
   -0.0755   -4.3990    0.0000 S   0  0  0  0  0  0  0  0  0  0  0  0
   -1.4709   -5.4114   -0.0000 C   0  0  0  0  0  0  0  0  0  0  0  0
   -2.6302   -5.0407   -0.0000 O   0  0  0  0  0  0  0  0  0  0  0  0
   -1.5192   -1.9183    0.0000 N   0  0  0  0  0  0  0  0  0  0  0  0
   -2.8647   -2.1542    0.0000 C   0  0  0  0  0  0  0  0  0  0  0  0
   -3.5547   -1.0381    0.0000 N   0  0  0  0  0  0  0  0  0  0  0  0
   -2.6636   -0.0131   -0.0000 N   0  0  0  0  0  0  0  0  0  0  0  0
   -1.4510   -0.5231    0.0000 C   0  0  0  0  0  0  0  0  0  0  0  0
   -0.2751    0.1436   -0.0000 N   0  0  0  0  0  0  0  0  0  0  0  0
    2.5543   -0.7271    0.0000 H   0  0  0  0  0  0  0  0  0  0  0  0
    1.5027    1.0806    0.0000 H   0  0  0  0  0  0  0  0  0  0  0  0
    2.6588    0.5350    0.0000 H   0  0  0  0  0  0  0  0  0  0  0  0
    1.7822   -2.5345   -0.0000 H   0  0  0  0  0  0  0  0  0  0  0  0
   -1.2252   -6.4857   -0.0000 H   0  0  0  0  0  0  0  0  0  0  0  0
   -3.3378   -3.1180    0.0000 H   0  0  0  0  0  0  0  0  0  0  0  0
  1  2  1  0  0  0  0
  1 14  1  0  0  0  0
  1 15  1  0  0  0  0
  1 16  1  0  0  0  0
  2 13  2  0  0  0  0
  2  3  1  0  0  0  0
  3  4  2  0  0  0  0
  3 17  1  0  0  0  0
  4  5  1  0  0  0  0
  4  8  1  0  0  0  0
  5  6  1  0  0  0  0
  6  7  2  0  0  0  0
  6 18  1  0  0  0  0
  8 12  1  0  0  0  0
  8  9  1  0  0  0  0
  9 10  2  0  0  0  0
  9 19  1  0  0  0  0
 10 11  1  0  0  0  0
 11 12  2  0  0  0  0
 12 13  1  0  0  0  0
M  END
$$$$
