
 OpenBabel03202621382D

 23 23  0  0  1  0  0  0  0  0999 V2000
    3.5981    0.5000    0.0000 C   0  0  0  0  0  0  0  0  0  0  0  0
    3.5981    1.5000    0.0000 S   0  0  0  0  0  0  0  0  0  0  0  0
    2.0938    2.2706    0.4399 C   0  0  0  0  0  0  0  0  0  0  0  0
    2.1472    3.4244    0.8675 O   0  0  0  0  0  0  0  0  0  0  0  0
    0.7242    1.6024    0.1194 C   0  0  2  0  0  0  0  0  0  0  0  0
   -0.3269    2.3144    0.8938 N   0  0  0  0  0  0  0  0  0  0  0  0
    0.6483    0.0897    0.3919 C   0  0  0  0  0  0  0  0  0  0  0  0
   -0.7425   -0.4808    0.4635 C   0  0  0  0  0  0  0  0  0  0  0  0
   -1.0526   -1.7752   -0.2480 C   0  0  0  0  0  0  0  0  0  0  0  0
   -1.6669   -0.4881   -0.7255 C   0  0  0  0  0  0  0  0  0  0  0  0
    3.4754    0.3250   -1.0870 H   0  0  0  0  0  0  0  0  0  0  0  0
    4.6615    0.3284    0.2528 H   0  0  0  0  0  0  0  0  0  0  0  0
    3.5981   -0.5700    0.0000 H   0  0  0  0  0  0  0  0  0  0  0  0
    0.5304    1.7892   -0.9440 H   0  0  0  0  0  0  0  0  0  0  0  0
   -0.1244    3.3178    0.8537 H   0  0  0  0  0  0  0  0  0  0  0  0
   -1.2290    2.1795    0.4396 H   0  0  0  0  0  0  0  0  0  0  0  0
    1.1551   -0.1478    1.3359 H   0  0  0  0  0  0  0  0  0  0  0  0
    1.1932   -0.4365   -0.3997 H   0  0  0  0  0  0  0  0  0  0  0  0
   -1.1893   -0.3261    1.4414 H   0  0  0  0  0  0  0  0  0  0  0  0
   -0.2941   -2.2293   -0.8763 H   0  0  0  0  0  0  0  0  0  0  0  0
   -1.6878   -2.4902    0.2607 H   0  0  0  0  0  0  0  0  0  0  0  0
   -1.3220   -0.0764   -1.6660 H   0  0  0  0  0  0  0  0  0  0  0  0
   -2.7269   -0.3393   -0.5406 H   0  0  0  0  0  0  0  0  0  0  0  0
  1  2  1  0  0  0  0
  1 11  1  0  0  0  0
  1 12  1  0  0  0  0
  1 13  1  0  0  0  0
  2  3  1  0  0  0  0
  3  4  2  0  0  0  0
  3  5  1  0  0  0  0
  5  6  1  0  0  0  0
  5  7  1  0  0  0  0
  5 14  1  6  0  0  0
  6 15  1  0  0  0  0
  6 16  1  0  0  0  0
  7  8  1  0  0  0  0
  7 17  1  0  0  0  0
  7 18  1  0  0  0  0
  8 10  1  0  0  0  0
  8  9  1  0  0  0  0
  8 19  1  0  0  0  0
  9 10  1  0  0  0  0
  9 20  1  0  0  0  0
  9 21  1  0  0  0  0
 10 22  1  0  0  0  0
 10 23  1  0  0  0  0
M  END
$$$$
