
 OpenBabel03202621362D

 20 19  0  0  0  0  0  0  0  0999 V2000
    4.3301    0.5000    0.0000 C   0  0  0  0  0  0  0  0  0  0  0  0
    4.3301    1.5000    0.0000 O   0  0  0  0  0  0  0  0  0  0  0  0
    4.3049    1.9706    1.2826 C   0  0  0  0  0  0  0  0  0  0  0  0
    5.3226    2.2773    1.8940 O   0  0  0  0  0  0  0  0  0  0  0  0
    2.9172    2.1299    1.8691 C   0  0  0  0  0  0  0  0  0  0  0  0
    1.9577    2.8615    0.9341 C   0  0  0  0  0  0  0  0  0  0  0  0
    0.6773    2.1004    0.6710 C   0  0  0  0  0  0  0  0  0  0  0  0
   -0.4290    2.5866    0.8708 O   0  0  0  0  0  0  0  0  0  0  0  0
    0.8660    0.5000    0.0000 S   0  0  0  0  0  0  0  0  0  0  0  0
    0.0000    0.0000    0.0000 C   0  0  0  0  0  0  0  0  0  0  0  0
    5.3910    0.3153   -0.2771 H   0  0  0  0  0  0  0  0  0  0  0  0
    3.7361    0.3248   -0.9187 H   0  0  0  0  0  0  0  0  0  0  0  0
    4.3301   -0.5700    0.0000 H   0  0  0  0  0  0  0  0  0  0  0  0
    2.5639    1.1452    2.1911 H   0  0  0  0  0  0  0  0  0  0  0  0
    3.0286    2.7257    2.7838 H   0  0  0  0  0  0  0  0  0  0  0  0
    2.4063    3.1298   -0.0299 H   0  0  0  0  0  0  0  0  0  0  0  0
    1.6686    3.8078    1.4078 H   0  0  0  0  0  0  0  0  0  0  0  0
    0.0506   -0.4488    1.0126 H   0  0  0  0  0  0  0  0  0  0  0  0
    0.2582   -0.7891   -0.7315 H   0  0  0  0  0  0  0  0  0  0  0  0
   -0.9266   -0.5350    0.0000 H   0  0  0  0  0  0  0  0  0  0  0  0
  1  2  1  0  0  0  0
  1 11  1  0  0  0  0
  1 12  1  0  0  0  0
  1 13  1  0  0  0  0
  2  3  1  0  0  0  0
  3  4  2  0  0  0  0
  3  5  1  0  0  0  0
  5  6  1  0  0  0  0
  5 14  1  0  0  0  0
  5 15  1  0  0  0  0
  6  7  1  0  0  0  0
  6 16  1  0  0  0  0
  6 17  1  0  0  0  0
  7  8  2  0  0  0  0
  7  9  1  0  0  0  0
  9 10  1  0  0  0  0
 10 18  1  0  0  0  0
 10 19  1  0  0  0  0
 10 20  1  0  0  0  0
M  END
$$$$
