
 OpenBabel03202621382D

 27 28  0  0  0  0  0  0  0  0999 V2000
    1.8144    2.5312    0.0000 C   0  0  0  0  0  0  0  0  0  0  0  0
    1.0054    1.9435    0.0000 C   0  0  0  0  0  0  0  0  0  0  0  0
   -0.1773    2.1481   -0.2088 O   0  0  0  0  0  0  0  0  0  0  0  0
    1.5164    0.6450    0.6153 C   0  0  0  0  0  0  0  0  0  0  0  0
    2.7321    0.1493    0.2541 C   0  0  0  0  0  0  0  0  0  0  0  0
    3.0070   -1.2472    0.2950 C   0  0  0  0  0  0  0  0  0  0  0  0
    4.5610   -1.8919    0.5977 S   0  0  0  0  0  0  0  0  0  0  0  0
    4.0207   -3.5019    0.3313 C   0  0  0  0  0  0  0  0  0  0  0  0
    2.6788   -3.5643    0.0188 C   0  0  0  0  0  0  0  0  0  0  0  0
    2.1345   -2.2578   -0.0565 C   0  0  0  0  0  0  0  0  0  0  0  0
    0.8076   -1.9345   -0.4096 N   0  0  0  0  0  0  0  0  0  0  0  0
   -0.1895   -1.8763    0.5464 C   0  0  0  0  0  0  0  0  0  0  0  0
   -1.2024   -1.0827    0.0000 C   0  0  0  0  0  0  0  0  0  0  0  0
   -2.1160   -1.4894    0.0000 C   0  0  0  0  0  0  0  0  0  0  0  0
   -0.6515   -0.4781   -1.1201 N   0  0  0  0  0  0  0  0  0  0  0  0
    0.5032   -1.0734   -1.4081 N   0  0  0  0  0  0  0  0  0  0  0  0
    1.8741    2.6536   -1.1102 H   0  0  0  0  0  0  0  0  0  0  0  0
    1.3464    3.4364    0.4612 H   0  0  0  0  0  0  0  0  0  0  0  0
    2.6801    3.1601    0.0000 H   0  0  0  0  0  0  0  0  0  0  0  0
    0.7941    0.1506    1.2415 H   0  0  0  0  0  0  0  0  0  0  0  0
    3.4302    0.7292   -0.3480 H   0  0  0  0  0  0  0  0  0  0  0  0
    4.7213   -4.3248    0.4127 H   0  0  0  0  0  0  0  0  0  0  0  0
    2.1561   -4.4844   -0.2096 H   0  0  0  0  0  0  0  0  0  0  0  0
   -0.1793   -2.5830    1.3655 H   0  0  0  0  0  0  0  0  0  0  0  0
   -2.7215   -0.5533   -0.0303 H   0  0  0  0  0  0  0  0  0  0  0  0
   -2.1491   -1.9973   -1.0000 H   0  0  0  0  0  0  0  0  0  0  0  0
   -3.0935   -1.9246    0.0000 H   0  0  0  0  0  0  0  0  0  0  0  0
  1  2  1  0  0  0  0
  1 17  1  0  0  0  0
  1 18  1  0  0  0  0
  1 19  1  0  0  0  0
  2  3  2  0  0  0  0
  2  4  1  0  0  0  0
  4  5  2  3  0  0  0
  4 20  1  0  0  0  0
  5  6  1  0  0  0  0
  5 21  1  0  0  0  0
  6 10  2  0  0  0  0
  6  7  1  0  0  0  0
  7  8  1  0  0  0  0
  8  9  2  0  0  0  0
  8 22  1  0  0  0  0
  9 10  1  0  0  0  0
  9 23  1  0  0  0  0
 10 11  1  0  0  0  0
 11 16  1  0  0  0  0
 11 12  1  0  0  0  0
 12 13  2  0  0  0  0
 12 24  1  0  0  0  0
 13 14  1  0  0  0  0
 13 15  1  0  0  0  0
 14 25  1  0  0  0  0
 14 26  1  0  0  0  0
 14 27  1  0  0  0  0
 15 16  2  0  0  0  0
M  END
$$$$
