
 OpenBabel03202621302D

 19 19  0  0  0  0  0  0  0  0999 V2000
   -0.9513   -5.7336    0.0181 O   0  0  0  0  0  0  0  0  0  0  0  0
    0.2300   -5.4310    0.0741 C   0  0  0  0  0  0  0  0  0  0  0  0
    0.7279   -4.1518    0.0683 N   0  0  0  0  0  0  0  0  0  0  0  0
   -0.1702   -3.0150    0.0332 C   0  0  0  0  0  0  0  0  0  0  0  0
    0.5617   -1.6748   -0.0327 C   0  0  0  0  0  0  0  0  0  0  0  0
   -0.3385   -0.4803   -0.0478 C   0  0  0  0  0  0  0  0  0  0  0  0
   -1.7636   -0.4301   -0.0523 C   0  0  0  0  0  0  0  0  0  0  0  0
   -2.1129    0.8991   -0.0452 C   0  0  0  0  0  0  0  0  0  0  0  0
   -1.0035    1.6779   -0.0514 O   0  0  0  0  0  0  0  0  0  0  0  0
    0.0646    0.8418   -0.0564 C   0  0  0  0  0  0  0  0  0  0  0  0
    1.0334   -6.1839    0.1383 H   0  0  0  0  0  0  0  0  0  0  0  0
    1.7236   -4.0158    0.1886 H   0  0  0  0  0  0  0  0  0  0  0  0
   -0.8280   -3.1393   -0.8356 H   0  0  0  0  0  0  0  0  0  0  0  0
   -0.8005   -3.0682    0.9293 H   0  0  0  0  0  0  0  0  0  0  0  0
    1.1981   -1.6527   -0.9268 H   0  0  0  0  0  0  0  0  0  0  0  0
    1.2373   -1.5931    0.8292 H   0  0  0  0  0  0  0  0  0  0  0  0
   -2.4595   -1.2584   -0.0528 H   0  0  0  0  0  0  0  0  0  0  0  0
   -3.0571    1.4255   -0.0360 H   0  0  0  0  0  0  0  0  0  0  0  0
    1.0304    1.3283   -0.0613 H   0  0  0  0  0  0  0  0  0  0  0  0
  1  2  2  0  0  0  0
  2  3  1  0  0  0  0
  2 11  1  0  0  0  0
  3  4  1  0  0  0  0
  3 12  1  0  0  0  0
  4  5  1  0  0  0  0
  4 13  1  0  0  0  0
  4 14  1  0  0  0  0
  5  6  1  0  0  0  0
  5 15  1  0  0  0  0
  5 16  1  0  0  0  0
  6 10  2  0  0  0  0
  6  7  1  0  0  0  0
  7  8  2  0  0  0  0
  7 17  1  0  0  0  0
  8  9  1  0  0  0  0
  8 18  1  0  0  0  0
  9 10  1  0  0  0  0
 10 19  1  0  0  0  0
M  END
$$$$
