
 OpenBabel03202621302D

 24 24  0  0  1  0  0  0  0  0999 V2000
    3.9895   -2.2862    0.0000 C   0  0  0  0  0  0  0  0  0  0  0  0
    4.1974   -1.3080    0.0000 S   0  0  0  0  0  0  0  0  0  0  0  0
    2.9106   -0.2537    0.4535 C   0  0  0  0  0  0  0  0  0  0  0  0
    2.8220    0.2397    1.5656 O   0  0  0  0  0  0  0  0  0  0  0  0
    2.0524   -0.0444   -0.5832 N   0  0  0  0  0  0  0  0  0  0  0  0
    0.8270    0.7083   -0.4306 C   0  0  0  0  0  0  0  0  0  0  0  0
   -0.2490   -0.0522    0.3577 C   0  0  2  0  0  0  0  0  0  0  0  0
   -0.4899   -1.4525   -0.1241 C   0  0  0  0  0  0  0  0  0  0  0  0
   -1.7905   -1.7123   -0.2864 C   0  0  0  0  0  0  0  0  0  0  0  0
   -2.6419   -0.5399    0.0590 C   0  0  0  0  0  0  0  0  0  0  0  0
   -1.6330    0.6005    0.2050 C   0  0  0  0  0  0  0  0  0  0  0  0
    3.8291   -2.4521    1.0857 H   0  0  0  0  0  0  0  0  0  0  0  0
    4.9967   -2.6744   -0.2444 H   0  0  0  0  0  0  0  0  0  0  0  0
    3.7671   -3.3328    0.0000 H   0  0  0  0  0  0  0  0  0  0  0  0
    2.2075   -0.5739   -1.4303 H   0  0  0  0  0  0  0  0  0  0  0  0
    0.4847    0.9485   -1.4429 H   0  0  0  0  0  0  0  0  0  0  0  0
    1.0582    1.6534    0.0776 H   0  0  0  0  0  0  0  0  0  0  0  0
    0.0332   -0.0972    1.4201 H   0  0  0  0  0  0  0  0  0  0  0  0
    0.2946   -2.1848   -0.2576 H   0  0  0  0  0  0  0  0  0  0  0  0
   -2.1883   -2.6725   -0.5815 H   0  0  0  0  0  0  0  0  0  0  0  0
   -3.1810   -0.7223    0.9931 H   0  0  0  0  0  0  0  0  0  0  0  0
   -3.3660   -0.3265   -0.7325 H   0  0  0  0  0  0  0  0  0  0  0  0
   -1.6788    1.2403   -0.6859 H   0  0  0  0  0  0  0  0  0  0  0  0
   -1.8734    1.2380    1.0630 H   0  0  0  0  0  0  0  0  0  0  0  0
  1  2  1  0  0  0  0
  1 12  1  0  0  0  0
  1 13  1  0  0  0  0
  1 14  1  0  0  0  0
  2  3  1  0  0  0  0
  3  4  2  0  0  0  0
  3  5  1  0  0  0  0
  5  6  1  0  0  0  0
  5 15  1  0  0  0  0
  6 16  1  0  0  0  0
  6 17  1  0  0  0  0
  7  6  1  0  0  0  0
  7  8  1  0  0  0  0
  7 11  1  0  0  0  0
  7 18  1  1  0  0  0
  8  9  2  0  0  0  0
  8 19  1  0  0  0  0
  9 10  1  0  0  0  0
  9 20  1  0  0  0  0
 10 11  1  0  0  0  0
 10 21  1  0  0  0  0
 10 22  1  0  0  0  0
 11 23  1  0  0  0  0
 11 24  1  0  0  0  0
M  END
$$$$
