
 OpenBabel03202621382D

 25 26  0  0  1  0  0  0  0  0999 V2000
    2.3761    2.4314   -0.1100 O   0  0  0  0  0  0  0  0  0  0  0  0
    1.3612    1.7322    0.0032 C   0  0  0  0  0  0  0  0  0  0  0  0
    0.1348    2.2966   -0.0351 O   0  0  0  0  0  0  0  0  0  0  0  0
   -1.2591    1.9556    0.0430 C   0  0  0  0  0  0  0  0  0  0  0  0
   -1.7419    0.8349    0.5969 C   0  0  0  0  0  0  0  0  0  0  0  0
   -3.1805    0.4643    0.4487 C   0  0  0  0  0  0  0  0  0  0  0  0
   -4.0823    1.5239    0.1285 O   0  0  0  0  0  0  0  0  0  0  0  0
   -3.5176    2.6372   -0.4283 C   0  0  0  0  0  0  0  0  0  0  0  0
   -2.2035    2.9208   -0.5417 C   0  0  0  0  0  0  0  0  0  0  0  0
   -1.6543    3.9421   -1.0403 O   0  5  0  0  0  0  0  0  0  0  0  0
    1.5147    0.2393    0.2795 C   0  0  2  0  0  0  0  0  0  0  0  0
    2.9165   -0.2029   -0.1672 C   0  0  0  0  0  0  0  0  0  0  0  0
    2.8385   -2.0138   -0.1884 S   0  0  0  0  0  0  0  0  0  0  0  0
    1.0382   -2.0274   -0.1704 C   0  0  0  0  0  0  0  0  0  0  0  0
    0.5858   -0.6711   -0.4414 N   0  0  0  0  0  0  0  0  0  0  0  0
   -1.1093    0.1201    1.0939 H   0  0  0  0  0  0  0  0  0  0  0  0
   -3.2655   -0.2950   -0.3398 H   0  0  0  0  0  0  0  0  0  0  0  0
   -3.5395    0.0037    1.3743 H   0  0  0  0  0  0  0  0  0  0  0  0
   -4.2775    3.3237   -0.7736 H   0  0  0  0  0  0  0  0  0  0  0  0
    1.4022    0.1101    1.3650 H   0  0  0  0  0  0  0  0  0  0  0  0
    3.7026    0.1435    0.5095 H   0  0  0  0  0  0  0  0  0  0  0  0
    3.1494    0.1404   -1.1822 H   0  0  0  0  0  0  0  0  0  0  0  0
    0.6946   -2.3511    0.8190 H   0  0  0  0  0  0  0  0  0  0  0  0
    0.6440   -2.7313   -0.9082 H   0  0  0  0  0  0  0  0  0  0  0  0
    0.6504   -0.4790   -1.4410 H   0  0  0  0  0  0  0  0  0  0  0  0
  1  2  2  0  0  0  0
  2  3  1  0  0  0  0
  3  4  1  0  0  0  0
  4  9  1  0  0  0  0
  4  5  2  0  0  0  0
  5  6  1  0  0  0  0
  5 16  1  0  0  0  0
  6  7  1  0  0  0  0
  6 17  1  0  0  0  0
  6 18  1  0  0  0  0
  7  8  1  0  0  0  0
  8  9  2  0  0  0  0
  8 19  1  0  0  0  0
  9 10  1  0  0  0  0
 11  2  1  0  0  0  0
 11 12  1  0  0  0  0
 11 15  1  0  0  0  0
 11 20  1  1  0  0  0
 12 13  1  0  0  0  0
 12 21  1  0  0  0  0
 12 22  1  0  0  0  0
 13 14  1  0  0  0  0
 14 15  1  0  0  0  0
 14 23  1  0  0  0  0
 14 24  1  0  0  0  0
 15 25  1  0  0  0  0
M  CHG  1  10  -1
M  END
$$$$
