
 OpenBabel03202621332D

 19 20  0  0  0  0  0  0  0  0999 V2000
   -4.0867   -3.1220    0.0955 C   0  0  0  0  0  0  0  0  0  0  0  0
   -2.6632   -2.7458    0.1585 C   0  0  0  0  0  0  0  0  0  0  0  0
   -2.0832   -1.5015    0.2189 C   0  0  0  0  0  0  0  0  0  0  0  0
   -0.7071   -1.7071    0.0000 N   0  0  0  0  0  0  0  0  0  0  0  0
    0.0000   -1.0000    0.0000 C   0  0  0  0  0  0  0  0  0  0  0  0
   -0.4168   -0.1048   -1.3125 C   0  0  0  0  0  0  0  0  0  0  0  0
    0.6277   -0.6691   -2.1360 O   0  0  0  0  0  0  0  0  0  0  0  0
    1.0644   -1.5924   -1.1065 C   0  0  0  0  0  0  0  0  0  0  0  0
   -0.5148   -3.0443    0.2626 N   0  0  0  0  0  0  0  0  0  0  0  0
   -1.6768   -3.6787    0.1951 N   0  0  0  0  0  0  0  0  0  0  0  0
   -4.6815   -2.3237   -0.3596 H   0  0  0  0  0  0  0  0  0  0  0  0
   -4.2210   -4.0236   -0.5113 H   0  0  0  0  0  0  0  0  0  0  0  0
   -4.4797   -3.3168    1.1006 H   0  0  0  0  0  0  0  0  0  0  0  0
   -2.5113   -0.5096    0.2811 H   0  0  0  0  0  0  0  0  0  0  0  0
    0.7566   -0.2434    0.0000 H   0  0  0  0  0  0  0  0  0  0  0  0
   -1.3901   -0.2346   -1.8065 H   0  0  0  0  0  0  0  0  0  0  0  0
   -0.2785    0.9815   -1.1984 H   0  0  0  0  0  0  0  0  0  0  0  0
    0.9937   -2.6223   -1.4832 H   0  0  0  0  0  0  0  0  0  0  0  0
    2.1263   -1.4295   -0.8673 H   0  0  0  0  0  0  0  0  0  0  0  0
  1  2  1  0  0  0  0
  1 11  1  0  0  0  0
  1 12  1  0  0  0  0
  1 13  1  0  0  0  0
  2 10  1  0  0  0  0
  2  3  2  0  0  0  0
  3  4  1  0  0  0  0
  3 14  1  0  0  0  0
  4  5  1  0  0  0  0
  4  9  1  0  0  0  0
  5  8  1  0  0  0  0
  5  6  1  0  0  0  0
  5 15  1  0  0  0  0
  6  7  1  0  0  0  0
  6 16  1  0  0  0  0
  6 17  1  0  0  0  0
  7  8  1  0  0  0  0
  8 18  1  0  0  0  0
  8 19  1  0  0  0  0
  9 10  2  0  0  0  0
M  END
$$$$
