
 OpenBabel03202621312D

 37 38  0  0  1  0  0  0  0  0999 V2000
    2.1984    2.9485    0.0000 C   0  0  0  0  0  0  0  0  0  0  0  0
    1.2038    2.8440    0.0000 S   0  0  0  0  0  0  0  0  0  0  0  0
    1.0489    1.7215    1.3435 C   0  0  0  0  0  0  0  0  0  0  0  0
    0.1925    1.8519    2.2035 O   0  0  0  0  0  0  0  0  0  0  0  0
    2.0034    0.7177    1.3909 N   0  0  0  0  0  0  0  0  0  0  0  0
    2.7213    0.1944    0.1987 C   0  0  1  0  0  0  0  0  0  0  0  0
    3.4688   -1.0984    0.4813 C   0  0  0  0  0  0  0  0  0  0  0  0
    2.3496   -2.0961    0.3947 C   0  0  0  0  0  0  0  0  0  0  0  0
    2.4299   -3.2080    0.8910 O   0  0  0  0  0  0  0  0  0  0  0  0
    1.2653   -1.4493   -0.2603 N   0  0  0  0  0  0  0  0  0  0  0  0
   -0.0714   -1.8400   -0.1350 C   0  0  0  0  0  0  0  0  0  0  0  0
   -0.2472   -3.1623   -0.0079 C   0  0  0  0  0  0  0  0  0  0  0  0
   -1.5448   -3.4692    0.0491 C   0  0  0  0  0  0  0  0  0  0  0  0
   -2.7026   -2.4945    0.0000 C   0  0  0  0  0  0  0  0  0  0  0  0
   -3.5686   -2.9945    0.0000 C   0  0  0  0  0  0  0  0  0  0  0  0
   -2.7026   -1.4945    0.0000 C   0  0  0  0  0  0  0  0  0  0  0  0
   -3.5686   -0.9945    0.0000 C   0  0  0  0  0  0  0  0  0  0  0  0
   -1.2777   -1.0198   -0.1268 C   0  0  0  0  0  0  0  0  0  0  0  0
    1.7108   -0.2415   -0.8486 C   0  0  0  0  0  0  0  0  0  0  0  0
    2.3728    2.9203   -1.0938 H   0  0  0  0  0  0  0  0  0  0  0  0
    2.2625    4.0084    0.3176 H   0  0  0  0  0  0  0  0  0  0  0  0
    3.2625    3.0603    0.0000 H   0  0  0  0  0  0  0  0  0  0  0  0
    1.8097    0.0705    2.1504 H   0  0  0  0  0  0  0  0  0  0  0  0
    3.4402    0.9279   -0.1677 H   0  0  0  0  0  0  0  0  0  0  0  0
    3.9302   -1.1110    1.4727 H   0  0  0  0  0  0  0  0  0  0  0  0
    4.2077   -1.3288   -0.2915 H   0  0  0  0  0  0  0  0  0  0  0  0
    0.5074   -3.9312   -0.0202 H   0  0  0  0  0  0  0  0  0  0  0  0
   -1.7730   -4.5438    0.1013 H   0  0  0  0  0  0  0  0  0  0  0  0
   -3.5381   -3.5569    0.9771 H   0  0  0  0  0  0  0  0  0  0  0  0
   -3.5044   -3.6095   -0.9423 H   0  0  0  0  0  0  0  0  0  0  0  0
   -4.4952   -3.5295    0.0000 H   0  0  0  0  0  0  0  0  0  0  0  0
   -3.3888   -0.2929    0.8589 H   0  0  0  0  0  0  0  0  0  0  0  0
   -3.4732   -0.4222   -0.9645 H   0  0  0  0  0  0  0  0  0  0  0  0
   -4.4952   -0.4595    0.0000 H   0  0  0  0  0  0  0  0  0  0  0  0
   -1.1454    0.0645   -0.1924 H   0  0  0  0  0  0  0  0  0  0  0  0
    0.8844    0.4279   -1.0715 H   0  0  0  0  0  0  0  0  0  0  0  0
    2.2093   -0.4816   -1.7964 H   0  0  0  0  0  0  0  0  0  0  0  0
  1  2  1  0  0  0  0
  1 20  1  0  0  0  0
  1 21  1  0  0  0  0
  1 22  1  0  0  0  0
  2  3  1  0  0  0  0
  3  4  2  0  0  0  0
  3  5  1  0  0  0  0
  5 23  1  0  0  0  0
  6  5  1  0  0  0  0
  6  7  1  0  0  0  0
  6 19  1  0  0  0  0
  6 24  1  6  0  0  0
  7  8  1  0  0  0  0
  7 25  1  0  0  0  0
  7 26  1  0  0  0  0
  8  9  2  0  0  0  0
  8 10  1  0  0  0  0
 10 11  1  0  0  0  0
 10 19  1  0  0  0  0
 11 18  2  0  0  0  0
 11 12  1  0  0  0  0
 12 13  2  0  0  0  0
 12 27  1  0  0  0  0
 13 14  1  0  0  0  0
 13 28  1  0  0  0  0
 14 15  1  0  0  0  0
 14 16  2  0  0  0  0
 15 29  1  0  0  0  0
 15 30  1  0  0  0  0
 15 31  1  0  0  0  0
 16 17  1  0  0  0  0
 16 18  1  0  0  0  0
 17 32  1  0  0  0  0
 17 33  1  0  0  0  0
 17 34  1  0  0  0  0
 18 35  1  0  0  0  0
 19 36  1  0  0  0  0
 19 37  1  0  0  0  0
M  END
$$$$
