
 OpenBabel03202621322D

 20 20  0  0  0  0  0  0  0  0999 V2000
    3.4641    1.0000    0.0000 C   0  0  0  0  0  0  0  0  0  0  0  0
    2.5981    1.5000    0.0000 S   0  0  0  0  0  0  0  0  0  0  0  0
    1.0126    0.8440    0.1355 C   0  0  0  0  0  0  0  0  0  0  0  0
    0.0739    1.6155    0.2454 O   0  0  0  0  0  0  0  0  0  0  0  0
    0.9431   -0.5264    0.0860 N   0  0  0  0  0  0  0  0  0  0  0  0
   -0.2363   -1.3055    0.0751 C   0  0  0  0  0  0  0  0  0  0  0  0
   -0.0866   -2.6954    0.0568 C   0  0  0  0  0  0  0  0  0  0  0  0
   -1.2055   -3.5345    0.0298 C   0  0  0  0  0  0  0  0  0  0  0  0
   -2.4930   -2.9926    0.0158 C   0  0  0  0  0  0  0  0  0  0  0  0
   -3.9557   -4.2014   -0.0279 Br  0  0  0  0  0  0  0  0  0  0  0  0
   -2.6557   -1.6064    0.0316 C   0  0  0  0  0  0  0  0  0  0  0  0
   -4.2118   -0.8522    0.0070 Cl  0  0  0  0  0  0  0  0  0  0  0  0
   -1.5303   -0.7711    0.0620 C   0  0  0  0  0  0  0  0  0  0  0  0
    3.4084    0.5333   -1.0040 H   0  0  0  0  0  0  0  0  0  0  0  0
    4.1578    1.8594   -0.0678 H   0  0  0  0  0  0  0  0  0  0  0  0
    4.3907    0.4650    0.0000 H   0  0  0  0  0  0  0  0  0  0  0  0
    1.8257   -1.0161    0.0406 H   0  0  0  0  0  0  0  0  0  0  0  0
    0.9018   -3.1508    0.0649 H   0  0  0  0  0  0  0  0  0  0  0  0
   -1.0616   -4.6128    0.0177 H   0  0  0  0  0  0  0  0  0  0  0  0
   -1.7023    0.3009    0.0662 H   0  0  0  0  0  0  0  0  0  0  0  0
  1  2  1  0  0  0  0
  1 14  1  0  0  0  0
  1 15  1  0  0  0  0
  1 16  1  0  0  0  0
  2  3  1  0  0  0  0
  3  4  2  0  0  0  0
  3  5  1  0  0  0  0
  5  6  1  0  0  0  0
  5 17  1  0  0  0  0
  6 13  2  0  0  0  0
  6  7  1  0  0  0  0
  7  8  2  0  0  0  0
  7 18  1  0  0  0  0
  8  9  1  0  0  0  0
  8 19  1  0  0  0  0
  9 10  1  0  0  0  0
  9 11  2  0  0  0  0
 11 12  1  0  0  0  0
 11 13  1  0  0  0  0
 13 20  1  0  0  0  0
M  END
$$$$
