
 OpenBabel03202621342D

 23 23  0  0  0  0  0  0  0  0999 V2000
    3.5085    1.3571   -0.8021 C   0  0  0  0  0  0  0  0  0  0  0  0
    2.4520    1.7824    0.1131 N   0  0  0  0  0  0  0  0  0  0  0  0
    1.1332    1.3037   -0.2866 C   0  0  0  0  0  0  0  0  0  0  0  0
    0.7518   -0.0998    0.1682 C   0  0  0  0  0  0  0  0  0  0  0  0
    1.8078   -0.9613    0.8502 C   0  0  0  0  0  0  0  0  0  0  0  0
    2.1517   -2.0782    0.0119 O   0  0  0  0  0  0  0  0  0  0  0  0
    1.8301   -3.3030    0.4907 C   0  0  0  0  0  0  0  0  0  0  0  0
    1.2672   -3.5682    1.5416 O   0  0  0  0  0  0  0  0  0  0  0  0
   -0.3425   -0.7880   -0.6508 C   0  0  0  0  0  0  0  0  0  0  0  0
   -0.6665   -0.2775    0.7106 C   0  0  0  0  0  0  0  0  0  0  0  0
    3.1598    0.6936   -1.6005 H   0  0  0  0  0  0  0  0  0  0  0  0
    3.9726    2.2313   -1.2705 H   0  0  0  0  0  0  0  0  0  0  0  0
    4.2887    0.8336   -0.2412 H   0  0  0  0  0  0  0  0  0  0  0  0
    2.4352    2.8023    0.1289 H   0  0  0  0  0  0  0  0  0  0  0  0
    0.4087    2.0013    0.1535 H   0  0  0  0  0  0  0  0  0  0  0  0
    1.0015    1.4034   -1.3722 H   0  0  0  0  0  0  0  0  0  0  0  0
    2.7399   -0.4310    1.0485 H   0  0  0  0  0  0  0  0  0  0  0  0
    1.4543   -1.2768    1.8394 H   0  0  0  0  0  0  0  0  0  0  0  0
    2.1511   -4.0638   -0.2382 H   0  0  0  0  0  0  0  0  0  0  0  0
   -0.3142   -1.8624   -0.7900 H   0  0  0  0  0  0  0  0  0  0  0  0
   -0.7746   -0.2648   -1.4975 H   0  0  0  0  0  0  0  0  0  0  0  0
   -1.3139    0.5882    0.7917 H   0  0  0  0  0  0  0  0  0  0  0  0
   -0.8399   -1.0117    1.4922 H   0  0  0  0  0  0  0  0  0  0  0  0
  1  2  1  0  0  0  0
  1 11  1  0  0  0  0
  1 12  1  0  0  0  0
  1 13  1  0  0  0  0
  2  3  1  0  0  0  0
  2 14  1  0  0  0  0
  3  4  1  0  0  0  0
  3 15  1  0  0  0  0
  3 16  1  0  0  0  0
  4 10  1  0  0  0  0
  4  5  1  0  0  0  0
  4  9  1  0  0  0  0
  5  6  1  0  0  0  0
  5 17  1  0  0  0  0
  5 18  1  0  0  0  0
  6  7  1  0  0  0  0
  7  8  2  0  0  0  0
  7 19  1  0  0  0  0
  9 10  1  0  0  0  0
  9 20  1  0  0  0  0
  9 21  1  0  0  0  0
 10 22  1  0  0  0  0
 10 23  1  0  0  0  0
M  END
$$$$
