
 OpenBabel03202621382D

 32 32  0  0  0  0  0  0  0  0999 V2000
    5.1962    4.0000    0.0000 C   0  0  0  0  0  0  0  0  0  0  0  0
    4.3301    4.5000    0.0000 O   0  0  0  0  0  0  0  0  0  0  0  0
    3.0970    4.7973    0.5016 C   0  0  0  0  0  0  0  0  0  0  0  0
    2.5048    3.6828    1.0802 O   0  0  0  0  0  0  0  0  0  0  0  0
    2.0251    2.8418    0.0476 C   0  0  0  0  0  0  0  0  0  0  0  0
    2.7516    1.4893    0.0861 C   0  0  0  0  0  0  0  0  0  0  0  0
    1.5705    0.5941    0.3446 C   0  0  0  0  0  0  0  0  0  0  0  0
    1.4340   -0.8686    0.2725 C   0  0  0  0  0  0  0  0  0  0  0  0
    0.1825   -1.3979    0.1759 C   0  0  0  0  0  0  0  0  0  0  0  0
    0.1262   -2.8851    0.0051 C   0  0  0  0  0  0  0  0  0  0  0  0
   -1.2342   -3.5378   -0.0907 C   0  0  0  0  0  0  0  0  0  0  0  0
   -2.3546   -2.7316   -0.4411 O   0  0  0  0  0  0  0  0  0  0  0  0
   -2.2416   -1.4190   -0.1445 C   0  0  0  0  0  0  0  0  0  0  0  0
   -1.1439   -0.6986    0.1764 C   0  0  0  0  0  0  0  0  0  0  0  0
   -1.1633    0.5183    0.4725 O   0  5  0  0  0  0  0  0  0  0  0  0
    4.9657    3.2347   -0.7665 H   0  0  0  0  0  0  0  0  0  0  0  0
    5.8401    4.7649   -0.4752 H   0  0  0  0  0  0  0  0  0  0  0  0
    6.1229    3.4650    0.0000 H   0  0  0  0  0  0  0  0  0  0  0  0
    3.1279    5.6420    1.1925 H   0  0  0  0  0  0  0  0  0  0  0  0
    2.4928    5.1671   -0.3471 H   0  0  0  0  0  0  0  0  0  0  0  0
    0.9451    2.7819    0.2478 H   0  0  0  0  0  0  0  0  0  0  0  0
    2.0880    3.2517   -0.9706 H   0  0  0  0  0  0  0  0  0  0  0  0
    3.5175    1.4327    0.8672 H   0  0  0  0  0  0  0  0  0  0  0  0
    3.2163    1.2657   -0.8789 H   0  0  0  0  0  0  0  0  0  0  0  0
    1.1983    0.8852    1.3334 H   0  0  0  0  0  0  0  0  0  0  0  0
    0.9285    0.9013   -0.4845 H   0  0  0  0  0  0  0  0  0  0  0  0
    2.3168   -1.4922    0.2799 H   0  0  0  0  0  0  0  0  0  0  0  0
    0.7034   -3.1486   -0.8903 H   0  0  0  0  0  0  0  0  0  0  0  0
    0.6591   -3.3505    0.8289 H   0  0  0  0  0  0  0  0  0  0  0  0
   -1.1862   -4.3059   -0.8660 H   0  0  0  0  0  0  0  0  0  0  0  0
   -1.4701   -4.0530    0.8445 H   0  0  0  0  0  0  0  0  0  0  0  0
   -3.1969   -0.9219   -0.2136 H   0  0  0  0  0  0  0  0  0  0  0  0
  1  2  1  0  0  0  0
  1 16  1  0  0  0  0
  1 17  1  0  0  0  0
  1 18  1  0  0  0  0
  2  3  1  0  0  0  0
  3  4  1  0  0  0  0
  3 19  1  0  0  0  0
  3 20  1  0  0  0  0
  4  5  1  0  0  0  0
  5  6  1  0  0  0  0
  5 21  1  0  0  0  0
  5 22  1  0  0  0  0
  6  7  1  0  0  0  0
  6 23  1  0  0  0  0
  6 24  1  0  0  0  0
  7  8  1  0  0  0  0
  7 25  1  0  0  0  0
  7 26  1  0  0  0  0
  8  9  2  3  0  0  0
  8 27  1  0  0  0  0
  9 14  1  0  0  0  0
  9 10  1  0  0  0  0
 10 11  1  0  0  0  0
 10 28  1  0  0  0  0
 10 29  1  0  0  0  0
 11 12  1  0  0  0  0
 11 30  1  0  0  0  0
 11 31  1  0  0  0  0
 12 13  1  0  0  0  0
 13 14  2  0  0  0  0
 13 32  1  0  0  0  0
 14 15  1  0  0  0  0
M  CHG  1  15  -1
M  END
$$$$
