
 OpenBabel03202621362D

 29 30  0  0  1  0  0  0  0  0999 V2000
    6.2732   -1.8867    0.5099 C   0  0  0  0  0  0  0  0  0  0  0  0
    5.0478   -1.6706    0.0801 C   0  0  0  0  0  0  0  0  0  0  0  0
    3.7638   -2.2209   -0.0356 C   0  0  0  0  0  0  0  0  0  0  0  0
    4.1948   -0.8252   -0.6690 C   0  0  1  0  0  0  0  0  0  0  0  0
    3.5961    0.4909   -0.2462 C   0  0  1  0  0  0  0  0  0  0  0  0
    4.5244    1.2666    0.5947 N   0  0  0  0  0  0  0  0  0  0  0  0
    2.1688    0.4817    0.3536 C   0  0  0  0  0  0  0  0  0  0  0  0
    1.7403    1.3094    1.1480 O   0  0  0  0  0  0  0  0  0  0  0  0
    1.4006   -0.4551   -0.2850 O   0  0  0  0  0  0  0  0  0  0  0  0
    0.0080   -0.6384   -0.0648 C   0  0  0  0  0  0  0  0  0  0  0  0
   -0.4765   -1.8888   -0.0563 C   0  0  0  0  0  0  0  0  0  0  0  0
   -1.7963   -2.2472    0.0082 O   0  0  0  0  0  0  0  0  0  0  0  0
   -2.7765   -1.1945    0.0114 C   0  0  0  0  0  0  0  0  0  0  0  0
   -2.2393    0.2038    0.0171 C   0  0  0  0  0  0  0  0  0  0  0  0
   -0.9310    0.4663   -0.0326 C   0  0  0  0  0  0  0  0  0  0  0  0
   -0.4933    1.7671   -0.0862 O   0  0  0  0  0  0  0  0  0  0  0  0
    6.5304   -2.8123    1.0108 H   0  0  0  0  0  0  0  0  0  0  0  0
    7.0648   -1.1682    0.3310 H   0  0  0  0  0  0  0  0  0  0  0  0
    3.6671   -3.0738   -0.6947 H   0  0  0  0  0  0  0  0  0  0  0  0
    3.1642   -2.2490    0.8647 H   0  0  0  0  0  0  0  0  0  0  0  0
    4.4455   -0.8052   -1.7238 H   0  0  0  0  0  0  0  0  0  0  0  0
    3.4694    1.0757   -1.1676 H   0  0  0  0  0  0  0  0  0  0  0  0
    5.3821    1.4376    0.0729 H   0  0  0  0  0  0  0  0  0  0  0  0
    4.1079    2.1844    0.7704 H   0  0  0  0  0  0  0  0  0  0  0  0
    0.1507   -2.7679   -0.1242 H   0  0  0  0  0  0  0  0  0  0  0  0
   -3.4169   -1.3529    0.8877 H   0  0  0  0  0  0  0  0  0  0  0  0
   -3.4008   -1.3288   -0.8784 H   0  0  0  0  0  0  0  0  0  0  0  0
   -2.9553    1.0195    0.0471 H   0  0  0  0  0  0  0  0  0  0  0  0
    0.3106    1.8341    0.4700 H   0  0  0  0  0  0  0  0  0  0  0  0
  1  2  2  0  0  0  0
  1 17  1  0  0  0  0
  1 18  1  0  0  0  0
  2  4  1  0  0  0  0
  2  3  1  0  0  0  0
  3  4  1  0  0  0  0
  3 19  1  0  0  0  0
  3 20  1  0  0  0  0
  4  5  1  0  0  0  0
  4 21  1  6  0  0  0
  5  6  1  0  0  0  0
  5  7  1  0  0  0  0
  5 22  1  1  0  0  0
  6 23  1  0  0  0  0
  6 24  1  0  0  0  0
  7  8  2  0  0  0  0
  7  9  1  0  0  0  0
  9 10  1  0  0  0  0
 10 15  1  0  0  0  0
 10 11  2  0  0  0  0
 11 12  1  0  0  0  0
 11 25  1  0  0  0  0
 12 13  1  0  0  0  0
 13 14  1  0  0  0  0
 13 26  1  0  0  0  0
 13 27  1  0  0  0  0
 14 15  2  0  0  0  0
 14 28  1  0  0  0  0
 15 16  1  0  0  0  0
 16 29  1  0  0  0  0
M  END
$$$$
