
 OpenBabel03202621322D

 16 15  0  0  0  0  0  0  0  0999 V2000
    3.4641    0.0000    0.0000 C   0  0  0  0  0  0  0  0  0  0  0  0
    3.4641    1.0000    0.0000 S   0  0  0  0  0  0  0  0  0  0  0  0
    1.9128    1.7535    0.2513 C   0  0  0  0  0  0  0  0  0  0  0  0
    1.8498    2.9562    0.4847 O   0  0  0  0  0  0  0  0  0  0  0  0
    0.6851    0.8696    0.1730 C   0  0  0  0  0  0  0  0  0  0  0  0
   -0.5851    1.7055    0.0419 C   0  0  0  0  0  0  0  0  0  0  0  0
   -1.9041    0.9525    0.0191 C   0  0  0  0  0  0  0  0  0  0  0  0
   -2.9565    1.5561    0.2213 O   0  0  0  0  0  0  0  0  0  0  0  0
   -1.8044   -0.7359   -0.3868 Cl  0  0  0  0  0  0  0  0  0  0  0  0
    3.2345   -0.1808   -1.0694 H   0  0  0  0  0  0  0  0  0  0  0  0
    4.5481   -0.1710    0.1421 H   0  0  0  0  0  0  0  0  0  0  0  0
    3.4641   -1.0700    0.0000 H   0  0  0  0  0  0  0  0  0  0  0  0
    0.6456    0.2524    1.0783 H   0  0  0  0  0  0  0  0  0  0  0  0
    0.7815    0.2143   -0.7003 H   0  0  0  0  0  0  0  0  0  0  0  0
   -0.5387    2.3064   -0.8745 H   0  0  0  0  0  0  0  0  0  0  0  0
   -0.6432    2.4051    0.8856 H   0  0  0  0  0  0  0  0  0  0  0  0
  1  2  1  0  0  0  0
  1 10  1  0  0  0  0
  1 11  1  0  0  0  0
  1 12  1  0  0  0  0
  2  3  1  0  0  0  0
  3  4  2  0  0  0  0
  3  5  1  0  0  0  0
  5  6  1  0  0  0  0
  5 13  1  0  0  0  0
  5 14  1  0  0  0  0
  6  7  1  0  0  0  0
  6 15  1  0  0  0  0
  6 16  1  0  0  0  0
  7  8  2  0  0  0  0
  7  9  1  0  0  0  0
M  END
$$$$
