
 OpenBabel03202621382D

 14 13  0  0  1  0  0  0  0  0999 V2000
    1.7321    0.0000    0.0000 C   0  0  0  0  0  0  0  0  0  0  0  0
    1.7321    1.0000    0.0000 S   0  0  0  0  0  0  0  0  0  0  0  0
    0.9096    2.2099    0.0000 C   0  0  0  0  0  0  0  0  0  0  0  0
    1.1019    3.3981   -0.0000 O   0  0  0  0  0  0  0  0  0  0  0  0
    0.0000    1.0000    0.0000 C   0  0  2  0  0  0  0  0  0  0  0  0
   -0.8660    1.5000    0.0000 C   0  0  0  0  0  0  0  0  0  0  0  0
   -0.9071   -0.6605    0.0000 Cl  0  0  0  0  0  0  0  0  0  0  0  0
    0.9605   -0.6764   -0.0000 H   0  0  0  0  0  0  0  0  0  0  0  0
    2.8033   -0.2551   -0.0000 H   0  0  0  0  0  0  0  0  0  0  0  0
    1.7321   -1.0700    0.0000 H   0  0  0  0  0  0  0  0  0  0  0  0
   -0.1526    2.0149   -0.0000 H   0  0  0  0  0  0  0  0  0  0  0  0
   -1.1406    2.8976    0.0000 H   0  0  0  0  0  0  0  0  0  0  0  0
   -1.8719    0.9785   -0.0000 H   0  0  0  0  0  0  0  0  0  0  0  0
   -1.7926    2.0350    0.0000 H   0  0  0  0  0  0  0  0  0  0  0  0
  1  2  1  0  0  0  0
  1  8  1  0  0  0  0
  1  9  1  0  0  0  0
  1 10  1  0  0  0  0
  2  3  1  0  0  0  0
  3  4  2  0  0  0  0
  3  5  1  0  0  0  0
  5  6  1  0  0  0  0
  5  7  1  0  0  0  0
  5 11  1  6  0  0  0
  6 12  1  0  0  0  0
  6 13  1  0  0  0  0
  6 14  1  0  0  0  0
M  END
$$$$
