
 OpenBabel03202621342D

 24 23  0  0  1  0  0  0  0  0999 V2000
    1.7321    0.0000    0.0000 C   0  0  0  0  0  0  0  0  0  0  0  0
    2.5981    0.5000    0.0000 C   0  0  0  0  0  0  0  0  0  0  0  0
    2.5981    1.5000    0.0000 C   0  0  2  0  0  0  0  0  0  0  0  0
    3.4641    2.0000    0.0000 C   0  0  0  0  0  0  0  0  0  0  0  0
    1.7111    2.6226    0.9652 C   0  0  2  0  0  0  0  0  0  0  0  0
    1.4750    3.8461    0.2606 O   0  0  0  0  0  0  0  0  0  0  0  0
    0.4983    1.8735    1.1296 C   0  0  0  0  0  0  0  0  0  0  0  0
   -0.5171    2.1194    1.7635 O   0  0  0  0  0  0  0  0  0  0  0  0
    0.8660    0.5000    0.0000 S   0  0  0  0  0  0  0  0  0  0  0  0
    0.0000    0.0000    0.0000 C   0  0  0  0  0  0  0  0  0  0  0  0
    2.0424   -0.9073    0.9167 H   0  0  0  0  0  0  0  0  0  0  0  0
    2.0630   -0.9252   -0.8797 H   0  0  0  0  0  0  0  0  0  0  0  0
    0.8055   -0.5350    0.0000 H   0  0  0  0  0  0  0  0  0  0  0  0
    3.3292    0.1292   -0.8142 H   0  0  0  0  0  0  0  0  0  0  0  0
    3.3102    0.1245    0.8242 H   0  0  0  0  0  0  0  0  0  0  0  0
    2.2546    1.8387   -1.0632 H   0  0  0  0  0  0  0  0  0  0  0  0
    3.7778    2.0433    1.0847 H   0  0  0  0  0  0  0  0  0  0  0  0
    3.2946    3.0045   -0.4851 H   0  0  0  0  0  0  0  0  0  0  0  0
    4.3907    2.5350    0.0000 H   0  0  0  0  0  0  0  0  0  0  0  0
    2.1653    2.8266    1.9478 H   0  0  0  0  0  0  0  0  0  0  0  0
    1.2073    4.5245    0.9040 H   0  0  0  0  0  0  0  0  0  0  0  0
   -0.8097    0.7793    0.0551 H   0  0  0  0  0  0  0  0  0  0  0  0
   -0.2109   -0.1461   -1.1588 H   0  0  0  0  0  0  0  0  0  0  0  0
   -0.9266   -0.5350    0.0000 H   0  0  0  0  0  0  0  0  0  0  0  0
  1  2  1  0  0  0  0
  1 11  1  0  0  0  0
  1 12  1  0  0  0  0
  1 13  1  0  0  0  0
  2  3  1  0  0  0  0
  2 14  1  0  0  0  0
  2 15  1  0  0  0  0
  3  4  1  0  0  0  0
  3  5  1  0  0  0  0
  3 16  1  6  0  0  0
  4 17  1  0  0  0  0
  4 18  1  0  0  0  0
  4 19  1  0  0  0  0
  5  6  1  0  0  0  0
  5  7  1  0  0  0  0
  5 20  1  6  0  0  0
  6 21  1  0  0  0  0
  7  8  2  0  0  0  0
  7  9  1  0  0  0  0
  9 10  1  0  0  0  0
 10 22  1  0  0  0  0
 10 23  1  0  0  0  0
 10 24  1  0  0  0  0
M  END
$$$$
