
 OpenBabel03202621342D

 19 19  0  0  0  0  0  0  0  0999 V2000
    4.8369   -0.4350    0.0001 C   0  0  0  0  0  0  0  0  0  0  0  0
    4.0287    0.6206    0.0003 C   0  0  0  0  0  0  0  0  0  0  0  0
    2.5489    0.6580    0.0003 C   0  0  0  0  0  0  0  0  0  0  0  0
    1.7408   -0.5217   -0.0010 N   0  0  0  0  0  0  0  0  0  0  0  0
    2.2196   -1.8018   -0.0002 N   0  0  0  0  0  0  0  0  0  0  0  0
    1.1045   -2.5376   -0.0005 C   0  0  0  0  0  0  0  0  0  0  0  0
   -0.0500   -1.8393   -0.0002 N   0  0  0  0  0  0  0  0  0  0  0  0
    0.3715   -0.5991   -0.0004 C   0  0  0  0  0  0  0  0  0  0  0  0
   -0.5878    0.8090    0.0000 S   0  0  0  0  0  0  0  0  0  0  0  0
   -1.5823    0.7045    0.0000 C   0  0  0  0  0  0  0  0  0  0  0  0
    4.4705   -1.4539    0.0000 H   0  0  0  0  0  0  0  0  0  0  0  0
    5.9135   -0.3053   -0.0000 H   0  0  0  0  0  0  0  0  0  0  0  0
    4.5168    1.6013    0.0001 H   0  0  0  0  0  0  0  0  0  0  0  0
    2.6093    1.7657   -0.0017 H   0  0  0  0  0  0  0  0  0  0  0  0
    1.6696    1.2952    0.0017 H   0  0  0  0  0  0  0  0  0  0  0  0
    1.1314   -3.6214   -0.0000 H   0  0  0  0  0  0  0  0  0  0  0  0
   -1.9970    1.7171    0.0000 H   0  0  0  0  0  0  0  0  0  0  0  0
   -1.8784   -0.3507    0.0000 H   0  0  0  0  0  0  0  0  0  0  0  0
   -2.6464    0.5927    0.0000 H   0  0  0  0  0  0  0  0  0  0  0  0
  1  2  2  0  0  0  0
  1 11  1  0  0  0  0
  1 12  1  0  0  0  0
  2  3  1  0  0  0  0
  2 13  1  0  0  0  0
  3  4  1  0  0  0  0
  3 14  1  0  0  0  0
  3 15  1  0  0  0  0
  4  8  1  0  0  0  0
  4  5  1  0  0  0  0
  5  6  2  0  0  0  0
  6  7  1  0  0  0  0
  6 16  1  0  0  0  0
  7  8  2  0  0  0  0
  8  9  1  0  0  0  0
  9 10  1  0  0  0  0
 10 17  1  0  0  0  0
 10 18  1  0  0  0  0
 10 19  1  0  0  0  0
M  END
$$$$
