
 OpenBabel03202621322D

 30 29  0  0  0  0  0  0  0  0999 V2000
    6.9282    0.0000    0.0000 C   0  0  0  0  0  0  0  0  0  0  0  0
    6.9282    1.0000    0.0000 C   0  0  0  0  0  0  0  0  0  0  0  0
    7.7942    1.5000    0.0000 C   0  0  0  0  0  0  0  0  0  0  0  0
    5.4484    1.3928   -0.5271 C   0  0  0  0  0  0  0  0  0  0  0  0
    4.3027    0.6006    0.1109 C   0  0  0  0  0  0  0  0  0  0  0  0
    3.9055    0.8109    1.2558 O   0  0  0  0  0  0  0  0  0  0  0  0
    3.8105   -0.3864   -0.7065 N   0  0  0  0  0  0  0  0  0  0  0  0
    2.7851   -1.3046   -0.2718 C   0  0  0  0  0  0  0  0  0  0  0  0
    1.4101   -0.6455   -0.1786 C   0  0  0  0  0  0  0  0  0  0  0  0
    0.3338   -1.7168   -0.0640 C   0  0  0  0  0  0  0  0  0  0  0  0
   -1.3186   -0.9730   -0.0150 S   0  0  0  0  0  0  0  0  0  0  0  0
   -2.2680   -2.4469   -0.0955 C   0  0  0  0  0  0  0  0  0  0  0  0
   -3.4910   -2.4218   -0.1684 O   0  0  0  0  0  0  0  0  0  0  0  0
    6.4637   -0.1783    1.0106 H   0  0  0  0  0  0  0  0  0  0  0  0
    8.0000   -0.3933    0.1350 H   0  0  0  0  0  0  0  0  0  0  0  0
    6.9282   -1.0700    0.0000 H   0  0  0  0  0  0  0  0  0  0  0  0
    6.9282    2.0700    0.0000 H   0  0  0  0  0  0  0  0  0  0  0  0
    8.2527    1.2754    1.0238 H   0  0  0  0  0  0  0  0  0  0  0  0
    8.3224    1.1683   -0.9576 H   0  0  0  0  0  0  0  0  0  0  0  0
    8.7208    2.0350    0.0000 H   0  0  0  0  0  0  0  0  0  0  0  0
    5.1772    2.4358   -0.2678 H   0  0  0  0  0  0  0  0  0  0  0  0
    5.3994    1.3408   -1.6233 H   0  0  0  0  0  0  0  0  0  0  0  0
    4.2413   -0.5325   -1.6097 H   0  0  0  0  0  0  0  0  0  0  0  0
    3.0745   -1.7213    0.6996 H   0  0  0  0  0  0  0  0  0  0  0  0
    2.7742   -2.1211   -1.0020 H   0  0  0  0  0  0  0  0  0  0  0  0
    1.2382   -0.0247   -1.0667 H   0  0  0  0  0  0  0  0  0  0  0  0
    1.3780    0.0261    0.6890 H   0  0  0  0  0  0  0  0  0  0  0  0
    0.3882   -2.3854   -0.9300 H   0  0  0  0  0  0  0  0  0  0  0  0
    0.4847   -2.3163    0.8403 H   0  0  0  0  0  0  0  0  0  0  0  0
   -1.7166   -3.3998   -0.0836 H   0  0  0  0  0  0  0  0  0  0  0  0
  1  2  1  0  0  0  0
  1 14  1  0  0  0  0
  1 15  1  0  0  0  0
  1 16  1  0  0  0  0
  2  3  1  0  0  0  0
  2  4  1  0  0  0  0
  2 17  1  0  0  0  0
  3 18  1  0  0  0  0
  3 19  1  0  0  0  0
  3 20  1  0  0  0  0
  4  5  1  0  0  0  0
  4 21  1  0  0  0  0
  4 22  1  0  0  0  0
  5  6  2  0  0  0  0
  5  7  1  0  0  0  0
  7  8  1  0  0  0  0
  7 23  1  0  0  0  0
  8  9  1  0  0  0  0
  8 24  1  0  0  0  0
  8 25  1  0  0  0  0
  9 10  1  0  0  0  0
  9 26  1  0  0  0  0
  9 27  1  0  0  0  0
 10 11  1  0  0  0  0
 10 28  1  0  0  0  0
 10 29  1  0  0  0  0
 11 12  1  0  0  0  0
 12 13  2  0  0  0  0
 12 30  1  0  0  0  0
M  END
$$$$
