
 OpenBabel03202621332D

 25 25  0  0  1  0  0  0  0  0999 V2000
    1.0000   -1.7321    0.0000 C   0  0  0  0  0  0  0  0  0  0  0  0
    2.0000   -1.7321    0.0000 S   0  0  0  0  0  0  0  0  0  0  0  0
    2.5282   -0.8596   -1.3749 C   0  0  0  0  0  0  0  0  0  0  0  0
    3.5613   -0.9485   -2.0072 O   0  0  0  0  0  0  0  0  0  0  0  0
    2.0000    0.0000    0.0000 C   0  0  2  0  0  0  0  0  0  0  0  0
    2.5000    0.8660    0.0000 C   0  0  0  0  0  0  0  0  0  0  0  0
    1.0000    0.0000    0.0000 C   0  0  0  0  0  0  0  0  0  0  0  0
    1.0000   -1.0000    0.0000 O   0  0  0  0  0  0  0  0  0  0  0  0
    0.0000    0.0000    0.0000 C   0  0  0  0  0  0  0  0  0  0  0  0
   -0.4423    1.3835   -0.3108 C   0  0  0  0  0  0  0  0  0  0  0  0
    1.0000    1.0000    0.0000 C   0  0  0  0  0  0  0  0  0  0  0  0
    0.8080   -2.5180   -0.9303 H   0  0  0  0  0  0  0  0  0  0  0  0
    0.8320   -2.6376    0.7995 H   0  0  0  0  0  0  0  0  0  0  0  0
   -0.0700   -1.7321    0.0000 H   0  0  0  0  0  0  0  0  0  0  0  0
    3.0700    0.0000    0.0000 H   0  0  0  0  0  0  0  0  0  0  0  0
    2.9286    1.0586    1.1033 H   0  0  0  0  0  0  0  0  0  0  0  0
    2.9593    1.1604   -1.0627 H   0  0  0  0  0  0  0  0  0  0  0  0
    3.0350    1.7926    0.0000 H   0  0  0  0  0  0  0  0  0  0  0  0
    1.0852   -0.9584    1.2881 H   0  0  0  0  0  0  0  0  0  0  0  0
   -0.6744   -0.4124   -0.8656 H   0  0  0  0  0  0  0  0  0  0  0  0
   -0.6278   -0.2115    0.9556 H   0  0  0  0  0  0  0  0  0  0  0  0
   -1.5018    1.2325   -0.0250 H   0  0  0  0  0  0  0  0  0  0  0  0
   -0.4564    2.3870    0.1644 H   0  0  0  0  0  0  0  0  0  0  0  0
    1.1814    1.7769   -0.9043 H   0  0  0  0  0  0  0  0  0  0  0  0
    1.0276    1.6188    1.0235 H   0  0  0  0  0  0  0  0  0  0  0  0
  1  2  1  0  0  0  0
  1 12  1  0  0  0  0
  1 13  1  0  0  0  0
  1 14  1  0  0  0  0
  2  3  1  0  0  0  0
  3  4  2  0  0  0  0
  3  5  1  0  0  0  0
  5  6  1  0  0  0  0
  5  7  1  0  0  0  0
  5 15  1  6  0  0  0
  6 16  1  0  0  0  0
  6 17  1  0  0  0  0
  6 18  1  0  0  0  0
  7 11  1  0  0  0  0
  7  8  1  0  0  0  0
  7  9  1  0  0  0  0
  8 19  1  0  0  0  0
  9 10  1  0  0  0  0
  9 20  1  0  0  0  0
  9 21  1  0  0  0  0
 10 11  1  0  0  0  0
 10 22  1  0  0  0  0
 10 23  1  0  0  0  0
 11 24  1  0  0  0  0
 11 25  1  0  0  0  0
M  END
$$$$
