
 OpenBabel03202621312D

 28 27  0  0  1  0  0  0  0  0999 V2000
    3.4641   -2.0000    0.0000 C   0  0  0  0  0  0  0  0  0  0  0  0
    3.4641   -1.0000    0.0000 C   0  0  1  0  0  0  0  0  0  0  0  0
    4.5836   -0.5839    0.9005 C   0  0  0  0  0  0  0  0  0  0  0  0
    4.3301    0.5000    0.0000 C   0  0  0  0  0  0  0  0  0  0  0  0
    3.8301    1.3660    0.0000 C   0  0  0  0  0  0  0  0  0  0  0  0
    3.3301    0.5000    0.0000 C   0  0  0  0  0  0  0  0  0  0  0  0
    5.8002    0.4365   -1.2394 S   0  0  0  0  0  0  0  0  0  0  0  0
    7.1606    0.5698   -0.0993 C   0  0  0  0  0  0  0  0  0  0  0  0
    7.8377    1.5836    0.0043 O   0  0  0  0  0  0  0  0  0  0  0  0
    2.1065   -1.1793    0.9705 O   0  0  0  0  0  0  0  0  0  0  0  0
    0.7912   -1.3515    0.3572 C   0  0  0  0  0  0  0  0  0  0  0  0
    0.0015   -0.1126    0.2626 C   0  0  0  0  0  0  0  0  0  0  0  0
   -0.6144    0.8736    0.1349 N   0  0  0  0  0  0  0  0  0  0  0  0
    2.6557   -2.3242   -0.7229 H   0  0  0  0  0  0  0  0  0  0  0  0
    4.4200   -2.2416   -0.5564 H   0  0  0  0  0  0  0  0  0  0  0  0
    3.4641   -3.0700    0.0000 H   0  0  0  0  0  0  0  0  0  0  0  0
    3.3254   -0.9251   -1.1843 H   0  0  0  0  0  0  0  0  0  0  0  0
    4.3681   -0.4367    1.9694 H   0  0  0  0  0  0  0  0  0  0  0  0
    5.5047   -1.1741    0.8115 H   0  0  0  0  0  0  0  0  0  0  0  0
    4.4660    1.9472    0.7989 H   0  0  0  0  0  0  0  0  0  0  0  0
    4.1797    1.9745   -0.9570 H   0  0  0  0  0  0  0  0  0  0  0  0
    3.2951    2.2926    0.0000 H   0  0  0  0  0  0  0  0  0  0  0  0
    2.8043    0.6986    1.2164 H   0  0  0  0  0  0  0  0  0  0  0  0
    2.7773    0.6416   -1.1943 H   0  0  0  0  0  0  0  0  0  0  0  0
    2.2601    0.5000    0.0000 H   0  0  0  0  0  0  0  0  0  0  0  0
    7.3891   -0.3276    0.4973 H   0  0  0  0  0  0  0  0  0  0  0  0
    0.8383   -1.8262   -0.6272 H   0  0  0  0  0  0  0  0  0  0  0  0
    0.2517   -2.0431    1.0222 H   0  0  0  0  0  0  0  0  0  0  0  0
  1 14  1  0  0  0  0
  1 15  1  0  0  0  0
  1 16  1  0  0  0  0
  2  1  1  0  0  0  0
  2  3  1  0  0  0  0
  2 10  1  0  0  0  0
  2 17  1  1  0  0  0
  3  4  1  0  0  0  0
  3 18  1  0  0  0  0
  3 19  1  0  0  0  0
  4  5  1  0  0  0  0
  4  6  1  0  0  0  0
  4  7  1  0  0  0  0
  5 20  1  0  0  0  0
  5 21  1  0  0  0  0
  5 22  1  0  0  0  0
  6 23  1  0  0  0  0
  6 24  1  0  0  0  0
  6 25  1  0  0  0  0
  7  8  1  0  0  0  0
  8  9  2  0  0  0  0
  8 26  1  0  0  0  0
 10 11  1  0  0  0  0
 11 12  1  0  0  0  0
 11 27  1  0  0  0  0
 11 28  1  0  0  0  0
 12 13  3  0  0  0  0
M  END
$$$$
