
 OpenBabel03202621332D

 33 34  0  0  1  0  0  0  0  0999 V2000
    0.4214    4.0251   -1.5497 O   0  0  0  0  0  0  0  0  0  0  0  0
   -0.2414    4.1383   -0.5303 C   0  0  0  0  0  0  0  0  0  0  0  0
   -0.1539    5.2956    0.1797 O   0  0  0  0  0  0  0  0  0  0  0  0
   -1.2644    3.1910    0.0694 C   0  0  1  0  0  0  0  0  0  0  0  0
   -2.5065    3.6685   -0.4885 O   0  0  0  0  0  0  0  0  0  0  0  0
   -1.0508    1.6716   -0.1634 C   0  0  1  0  0  0  0  0  0  0  0  0
   -1.5799    1.0219    1.0384 O   0  0  0  0  0  0  0  0  0  0  0  0
   -1.9716   -0.3012    0.8353 C   0  0  0  0  0  0  0  0  0  0  0  0
   -1.1603   -1.2914    1.2315 C   0  0  0  0  0  0  0  0  0  0  0  0
   -1.4478   -2.7102    0.8774 C   0  0  0  0  0  0  0  0  0  0  0  0
   -2.7935   -3.0093    0.4996 O   0  0  0  0  0  0  0  0  0  0  0  0
   -3.5569   -1.9421    0.1113 C   0  0  0  0  0  0  0  0  0  0  0  0
   -3.2589   -0.6266    0.2080 C   0  0  0  0  0  0  0  0  0  0  0  0
   -3.9555    0.3665   -0.1135 O   0  5  0  0  0  0  0  0  0  0  0  0
    0.3879    1.1590   -0.3359 C   0  0  0  0  0  0  0  0  0  0  0  0
    1.4933    1.7007    0.3374 C   0  0  0  0  0  0  0  0  0  0  0  0
    2.7545    1.1017    0.2405 C   0  0  0  0  0  0  0  0  0  0  0  0
    2.9178   -0.0854   -0.4721 C   0  0  0  0  0  0  0  0  0  0  0  0
    1.8261   -0.6487   -1.1239 C   0  0  0  0  0  0  0  0  0  0  0  0
    2.0093   -2.3247   -1.9813 Br  0  0  0  0  0  0  0  0  0  0  0  0
    0.5846   -0.0162   -1.0928 C   0  0  0  0  0  0  0  0  0  0  0  0
    0.4377    5.8409   -0.3792 H   0  0  0  0  0  0  0  0  0  0  0  0
   -1.2962    3.3769    1.1520 H   0  0  0  0  0  0  0  0  0  0  0  0
   -2.9067    4.2534    0.1745 H   0  0  0  0  0  0  0  0  0  0  0  0
   -1.6359    1.3879   -1.0477 H   0  0  0  0  0  0  0  0  0  0  0  0
   -0.2161   -1.0623    1.7079 H   0  0  0  0  0  0  0  0  0  0  0  0
   -0.8020   -2.9967    0.0379 H   0  0  0  0  0  0  0  0  0  0  0  0
   -1.1889   -3.3606    1.7163 H   0  0  0  0  0  0  0  0  0  0  0  0
   -4.5063   -2.2765   -0.2850 H   0  0  0  0  0  0  0  0  0  0  0  0
    1.3884    2.5812    0.9642 H   0  0  0  0  0  0  0  0  0  0  0  0
    3.6037    1.5455    0.7525 H   0  0  0  0  0  0  0  0  0  0  0  0
    3.8873   -0.5734   -0.4937 H   0  0  0  0  0  0  0  0  0  0  0  0
   -0.2746   -0.4818   -1.5782 H   0  0  0  0  0  0  0  0  0  0  0  0
  1  2  2  0  0  0  0
  2  3  1  0  0  0  0
  2  4  1  0  0  0  0
  3 22  1  0  0  0  0
  4  5  1  0  0  0  0
  4  6  1  0  0  0  0
  4 23  1  1  0  0  0
  5 24  1  0  0  0  0
  6  7  1  0  0  0  0
  6 15  1  0  0  0  0
  6 25  1  1  0  0  0
  7  8  1  0  0  0  0
  8 13  1  0  0  0  0
  8  9  2  0  0  0  0
  9 10  1  0  0  0  0
  9 26  1  0  0  0  0
 10 11  1  0  0  0  0
 10 27  1  0  0  0  0
 10 28  1  0  0  0  0
 11 12  1  0  0  0  0
 12 13  2  0  0  0  0
 12 29  1  0  0  0  0
 13 14  1  0  0  0  0
 15 21  2  0  0  0  0
 15 16  1  0  0  0  0
 16 17  2  0  0  0  0
 16 30  1  0  0  0  0
 17 18  1  0  0  0  0
 17 31  1  0  0  0  0
 18 19  2  0  0  0  0
 18 32  1  0  0  0  0
 19 20  1  0  0  0  0
 19 21  1  0  0  0  0
 21 33  1  0  0  0  0
M  CHG  1  14  -1
M  END
$$$$
