
 OpenBabel03202621392D

 25 25  0  0  0  0  0  0  0  0999 V2000
    4.3301   -1.5000    0.0000 C   0  0  0  0  0  0  0  0  0  0  0  0
    4.3301   -0.5000    0.0000 S   0  0  0  0  0  0  0  0  0  0  0  0
    3.0049    0.4962   -0.4857 C   0  0  0  0  0  0  0  0  0  0  0  0
    3.2495    1.7829   -1.5225 S   0  0  0  0  0  0  0  0  0  0  0  0
    1.8219    0.1022    0.0993 N   0  0  0  0  0  0  0  0  0  0  0  0
    0.5638    0.6589   -0.0868 C   0  0  0  0  0  0  0  0  0  0  0  0
    0.3294    1.8546   -0.1760 O   0  0  0  0  0  0  0  0  0  0  0  0
   -0.5616   -0.3134   -0.0274 C   0  0  0  0  0  0  0  0  0  0  0  0
   -0.3695   -1.6675   -0.3365 C   0  0  0  0  0  0  0  0  0  0  0  0
   -1.4483   -2.5488   -0.3050 C   0  0  0  0  0  0  0  0  0  0  0  0
   -2.7289   -2.0898    0.0212 C   0  0  0  0  0  0  0  0  0  0  0  0
   -3.8870   -3.0419    0.0006 C   0  0  0  0  0  0  0  0  0  0  0  0
   -2.9224   -0.7315    0.2991 C   0  0  0  0  0  0  0  0  0  0  0  0
   -1.8432    0.1543    0.2776 C   0  0  0  0  0  0  0  0  0  0  0  0
    4.2392   -1.6895   -1.0886 H   0  0  0  0  0  0  0  0  0  0  0  0
    5.3852   -1.6712    0.2856 H   0  0  0  0  0  0  0  0  0  0  0  0
    4.3301   -2.5700    0.0000 H   0  0  0  0  0  0  0  0  0  0  0  0
    1.8676   -0.7705    0.6009 H   0  0  0  0  0  0  0  0  0  0  0  0
    0.5983   -2.0519   -0.6413 H   0  0  0  0  0  0  0  0  0  0  0  0
   -1.2886   -3.5954   -0.5565 H   0  0  0  0  0  0  0  0  0  0  0  0
   -4.7489   -2.6322    0.5345 H   0  0  0  0  0  0  0  0  0  0  0  0
   -3.6135   -3.9838    0.4886 H   0  0  0  0  0  0  0  0  0  0  0  0
   -4.1804   -3.2473   -1.0343 H   0  0  0  0  0  0  0  0  0  0  0  0
   -3.9159   -0.3490    0.5240 H   0  0  0  0  0  0  0  0  0  0  0  0
   -2.0091    1.2097    0.4861 H   0  0  0  0  0  0  0  0  0  0  0  0
  1  2  1  0  0  0  0
  1 15  1  0  0  0  0
  1 16  1  0  0  0  0
  1 17  1  0  0  0  0
  2  3  1  0  0  0  0
  3  4  2  0  0  0  0
  3  5  1  0  0  0  0
  5  6  1  0  0  0  0
  5 18  1  0  0  0  0
  6  7  2  0  0  0  0
  6  8  1  0  0  0  0
  8 14  2  0  0  0  0
  8  9  1  0  0  0  0
  9 10  2  0  0  0  0
  9 19  1  0  0  0  0
 10 11  1  0  0  0  0
 10 20  1  0  0  0  0
 11 12  1  0  0  0  0
 11 13  2  0  0  0  0
 12 21  1  0  0  0  0
 12 22  1  0  0  0  0
 12 23  1  0  0  0  0
 13 14  1  0  0  0  0
 13 24  1  0  0  0  0
 14 25  1  0  0  0  0
M  END
$$$$
