
 OpenBabel03202621332D

 20 20  0  0  0  0  0  0  0  0999 V2000
    0.8660    3.5000    0.0000 C   0  0  0  0  0  0  0  0  0  0  0  0
    0.0000    3.0000    0.0000 S   0  0  0  0  0  0  0  0  0  0  0  0
   -0.5901    1.3982   -0.0000 C   0  0  0  0  0  0  0  0  0  0  0  0
   -2.2373    1.1581   -0.0000 S   0  0  0  0  0  0  0  0  0  0  0  0
    0.4367    0.5121   -0.0000 N   0  0  0  0  0  0  0  0  0  0  0  0
    0.5636   -0.8835   -0.0000 C   0  0  0  0  0  0  0  0  0  0  0  0
    1.9001   -1.3026    0.0000 C   0  0  0  0  0  0  0  0  0  0  0  0
    2.8742   -0.3762   -0.0000 F   0  0  0  0  0  0  0  0  0  0  0  0
    2.2623   -2.6392    0.0000 C   0  0  0  0  0  0  0  0  0  0  0  0
    1.2564   -3.5966    0.0000 C   0  0  0  0  0  0  0  0  0  0  0  0
    1.6754   -5.2632    0.0000 Cl  0  0  0  0  0  0  0  0  0  0  0  0
   -0.0811   -3.2187    0.0000 C   0  0  0  0  0  0  0  0  0  0  0  0
   -0.4224   -1.8658   -0.0000 C   0  0  0  0  0  0  0  0  0  0  0  0
   -1.7291   -1.5920   -0.0000 F   0  0  0  0  0  0  0  0  0  0  0  0
    1.6955    2.7927    0.0003 H   0  0  0  0  0  0  0  0  0  0  0  0
    0.6095    4.5627    0.0002 H   0  0  0  0  0  0  0  0  0  0  0  0
    1.7926    4.0350    0.0000 H   0  0  0  0  0  0  0  0  0  0  0  0
    1.3406    0.9669   -0.0000 H   0  0  0  0  0  0  0  0  0  0  0  0
    3.3100   -2.9075    0.0000 H   0  0  0  0  0  0  0  0  0  0  0  0
   -0.8760   -3.9591    0.0000 H   0  0  0  0  0  0  0  0  0  0  0  0
  1  2  1  0  0  0  0
  1 15  1  0  0  0  0
  1 16  1  0  0  0  0
  1 17  1  0  0  0  0
  2  3  1  0  0  0  0
  3  4  2  0  0  0  0
  3  5  1  0  0  0  0
  5  6  1  0  0  0  0
  5 18  1  0  0  0  0
  6 13  2  0  0  0  0
  6  7  1  0  0  0  0
  7  8  1  0  0  0  0
  7  9  2  0  0  0  0
  9 10  1  0  0  0  0
  9 19  1  0  0  0  0
 10 11  1  0  0  0  0
 10 12  2  0  0  0  0
 12 13  1  0  0  0  0
 12 20  1  0  0  0  0
 13 14  1  0  0  0  0
M  END
$$$$
