
 OpenBabel03202621322D

 28 29  0  0  1  0  0  0  0  0999 V2000
   -1.7321    4.0000    0.0000 C   0  0  0  0  0  0  0  0  0  0  0  0
   -1.7321    3.0000    0.0000 S   0  0  0  0  0  0  0  0  0  0  0  0
   -0.4660    2.3103    1.0666 C   0  0  0  0  0  0  0  0  0  0  0  0
   -0.4999    0.7556    0.8689 C   0  0  2  0  0  0  0  0  0  0  0  0
   -1.5980    0.2609    0.0806 O   0  0  0  0  0  0  0  0  0  0  0  0
    0.7467    0.0992    0.3250 C   0  0  0  0  0  0  0  0  0  0  0  0
    1.8237    0.8084   -0.2198 C   0  0  0  0  0  0  0  0  0  0  0  0
    3.0144    0.1532   -0.5334 C   0  0  0  0  0  0  0  0  0  0  0  0
    3.1462   -1.2333   -0.3841 C   0  0  0  0  0  0  0  0  0  0  0  0
    4.4512   -1.9131   -0.6743 C   0  0  2  0  0  0  0  0  0  0  0  0
    5.5753   -1.8191    0.3334 C   0  0  0  0  0  0  0  0  0  0  0  0
    4.8265   -3.0251    0.1596 O   0  0  0  0  0  0  0  0  0  0  0  0
    2.0162   -1.9495    0.0376 C   0  0  0  0  0  0  0  0  0  0  0  0
    0.8377   -1.2965    0.3891 C   0  0  0  0  0  0  0  0  0  0  0  0
   -1.1267    4.1757   -0.9108 H   0  0  0  0  0  0  0  0  0  0  0  0
   -2.7938    4.1711   -0.2601 H   0  0  0  0  0  0  0  0  0  0  0  0
   -1.7321    5.0700    0.0000 H   0  0  0  0  0  0  0  0  0  0  0  0
   -0.7012    2.5396    2.1105 H   0  0  0  0  0  0  0  0  0  0  0  0
    0.5027    2.7666    0.8595 H   0  0  0  0  0  0  0  0  0  0  0  0
   -0.6636    0.3349    1.8671 H   0  0  0  0  0  0  0  0  0  0  0  0
   -2.1116    1.0544   -0.1945 H   0  0  0  0  0  0  0  0  0  0  0  0
    1.7842    1.8768   -0.3988 H   0  0  0  0  0  0  0  0  0  0  0  0
    3.8583    0.7435   -0.8863 H   0  0  0  0  0  0  0  0  0  0  0  0
    4.7353   -1.9743   -1.7193 H   0  0  0  0  0  0  0  0  0  0  0  0
    5.4182   -1.2586    1.2460 H   0  0  0  0  0  0  0  0  0  0  0  0
    6.5940   -1.8120   -0.0330 H   0  0  0  0  0  0  0  0  0  0  0  0
    2.0682   -3.0341    0.1205 H   0  0  0  0  0  0  0  0  0  0  0  0
   -0.0179   -1.8817    0.7297 H   0  0  0  0  0  0  0  0  0  0  0  0
  1  2  1  0  0  0  0
  1 15  1  0  0  0  0
  1 16  1  0  0  0  0
  1 17  1  0  0  0  0
  2  3  1  0  0  0  0
  3  4  1  0  0  0  0
  3 18  1  0  0  0  0
  3 19  1  0  0  0  0
  4  5  1  0  0  0  0
  4  6  1  0  0  0  0
  4 20  1  6  0  0  0
  5 21  1  0  0  0  0
  6 14  2  0  0  0  0
  6  7  1  0  0  0  0
  7  8  2  0  0  0  0
  7 22  1  0  0  0  0
  8  9  1  0  0  0  0
  8 23  1  0  0  0  0
  9 13  2  0  0  0  0
 10  9  1  0  0  0  0
 10 11  1  0  0  0  0
 10 12  1  0  0  0  0
 10 24  1  1  0  0  0
 11 12  1  0  0  0  0
 11 25  1  0  0  0  0
 11 26  1  0  0  0  0
 13 14  1  0  0  0  0
 13 27  1  0  0  0  0
 14 28  1  0  0  0  0
M  END
$$$$
