
 OpenBabel03202621282D

 15 16  0  0  0  0  0  0  0  0999 V2000
   -2.7026   -0.5055    0.0000 O   0  5  0  0  0  0  0  0  0  0  0  0
   -3.5686   -0.0055    0.0000 C   0  0  0  0  0  0  0  0  0  0  0  0
   -4.4347   -0.5055    0.0000 C   0  0  0  0  0  0  0  0  0  0  0  0
   -5.3007   -0.0055    0.0000 O   0  0  0  0  0  0  0  0  0  0  0  0
   -5.3007    0.9945    0.0000 C   0  0  0  0  0  0  0  0  0  0  0  0
   -4.4347    1.4945    0.0000 C   0  0  0  0  0  0  0  0  0  0  0  0
   -3.5686    0.9945    0.0000 C   0  0  0  0  0  0  0  0  0  0  0  0
   -2.7026    1.4945    0.0000 O   0  0  0  0  0  0  0  0  0  0  0  0
   -1.8366    0.9945    0.0000 C   0  0  0  0  0  0  0  0  0  0  0  0
   -0.9706    1.4945    0.0000 C   0  0  0  0  0  0  0  0  0  0  0  0
   -0.1045    0.9945    0.0000 N   0  0  0  0  0  0  0  0  0  0  0  0
    0.8090    1.4013    0.0000 C   0  0  0  0  0  0  0  0  0  0  0  0
    1.4781    0.6581    0.0000 C   0  0  0  0  0  0  0  0  0  0  0  0
    0.9781   -0.2079    0.0000 N   0  0  0  0  0  0  0  0  0  0  0  0
    0.0000   -0.0000    0.0000 C   0  0  0  0  0  0  0  0  0  0  0  0
  1  2  1  0  0  0  0
  2  7  1  0  0  0  0
  2  3  2  0  0  0  0
  3  4  1  0  0  0  0
  4  5  1  0  0  0  0
  5  6  1  0  0  0  0
  6  7  2  0  0  0  0
  7  8  1  0  0  0  0
  8  9  1  0  0  0  0
  9 10  1  0  0  0  0
 10 11  1  0  0  0  0
 11 15  1  0  0  0  0
 11 12  1  0  0  0  0
 12 13  2  0  0  0  0
 13 14  1  0  0  0  0
 14 15  2  0  0  0  0
M  CHG  1   1  -1
M  END
$$$$
