
 OpenBabel03202621322D

 16 15  0  0  1  0  0  0  0  0999 V2000
    3.4641   -1.0000    0.0000 C   0  0  0  0  0  0  0  0  0  0  0  0
    3.4641    0.0000    0.0000 C   0  0  2  0  0  0  0  0  0  0  0  0
    4.4490    0.7085   -0.8933 N   0  0  0  0  0  0  0  0  0  0  0  0
    2.1056    0.7436   -0.2398 C   0  0  0  0  0  0  0  0  0  0  0  0
    1.0137    0.1156    0.4402 O   0  0  0  0  0  0  0  0  0  0  0  0
   -0.1668    0.7604    0.2910 C   0  0  0  0  0  0  0  0  0  0  0  0
   -1.2280    0.3498    0.7371 O   0  0  0  0  0  0  0  0  0  0  0  0
    3.2558   -1.2125   -1.0783 H   0  0  0  0  0  0  0  0  0  0  0  0
    4.5298   -1.2278    0.2571 H   0  0  0  0  0  0  0  0  0  0  0  0
    3.4641   -2.0700    0.0000 H   0  0  0  0  0  0  0  0  0  0  0  0
    3.7246    0.3910    0.9998 H   0  0  0  0  0  0  0  0  0  0  0  0
    5.3962    0.3751   -0.7046 H   0  0  0  0  0  0  0  0  0  0  0  0
    4.4602    1.7045   -0.6726 H   0  0  0  0  0  0  0  0  0  0  0  0
    2.1989    1.7740    0.1359 H   0  0  0  0  0  0  0  0  0  0  0  0
    1.8742    0.7942   -1.3125 H   0  0  0  0  0  0  0  0  0  0  0  0
   -0.0756    1.7068   -0.2656 H   0  0  0  0  0  0  0  0  0  0  0  0
  1  8  1  0  0  0  0
  1  9  1  0  0  0  0
  1 10  1  0  0  0  0
  2  1  1  0  0  0  0
  2  3  1  0  0  0  0
  2  4  1  0  0  0  0
  2 11  1  6  0  0  0
  3 12  1  0  0  0  0
  3 13  1  0  0  0  0
  4  5  1  0  0  0  0
  4 14  1  0  0  0  0
  4 15  1  0  0  0  0
  5  6  1  0  0  0  0
  6  7  2  0  0  0  0
  6 16  1  0  0  0  0
M  END
$$$$
