
 OpenBabel03202621362D

 32 34  0  0  0  0  0  0  0  0999 V2000
   -0.0933   -1.7796    0.0000 C   0  0  0  0  0  0  0  0  0  0  0  0
   -0.5000   -0.8660    0.0000 C   0  0  0  0  0  0  0  0  0  0  0  0
   -1.8000   -0.5447   -0.0010 C   0  0  0  0  0  0  0  0  0  0  0  0
   -1.8056    0.7926   -0.0066 N   0  0  0  0  0  0  0  0  0  0  0  0
   -2.9484    1.5223   -0.0053 C   0  0  0  0  0  0  0  0  0  0  0  0
   -4.1380    0.7933   -0.0022 C   0  0  0  0  0  0  0  0  0  0  0  0
   -5.2917    1.4601   -0.0041 C   0  0  0  0  0  0  0  0  0  0  0  0
   -5.2581    2.8527   -0.0055 C   0  0  0  0  0  0  0  0  0  0  0  0
   -6.5130    3.4995   -0.0062 C   0  0  0  0  0  0  0  0  0  0  0  0
   -7.5623    2.6995   -0.0125 N   0  0  0  0  0  0  0  0  0  0  0  0
   -8.7124    3.3046   -0.0087 C   0  0  0  0  0  0  0  0  0  0  0  0
   -9.7558    2.4281   -0.0011 N   0  0  0  0  0  0  0  0  0  0  0  0
   -8.8621    4.6310   -0.0014 N   0  0  0  0  0  0  0  0  0  0  0  0
   -7.7115    5.3267    0.0000 C   0  0  0  0  0  0  0  0  0  0  0  0
   -7.6724    6.6798    0.0014 N   0  0  0  0  0  0  0  0  0  0  0  0
   -6.5256    4.8162   -0.0026 N   0  0  0  0  0  0  0  0  0  0  0  0
   -4.0473    3.5786   -0.0034 C   0  0  0  0  0  0  0  0  0  0  0  0
   -2.8611    2.9097   -0.0021 C   0  0  0  0  0  0  0  0  0  0  0  0
   -0.5747    1.3188   -0.0049 N   0  0  0  0  0  0  0  0  0  0  0  0
    0.2483    0.2950   -0.0065 N   0  0  0  0  0  0  0  0  0  0  0  0
   -0.8927   -2.5405   -0.0028 H   0  0  0  0  0  0  0  0  0  0  0  0
    1.0038   -1.6723    0.0008 H   0  0  0  0  0  0  0  0  0  0  0  0
    0.3419   -2.7571    0.0000 H   0  0  0  0  0  0  0  0  0  0  0  0
   -2.6460   -1.2120    0.0057 H   0  0  0  0  0  0  0  0  0  0  0  0
   -4.2303   -0.2860   -0.0007 H   0  0  0  0  0  0  0  0  0  0  0  0
   -6.2108    0.8802   -0.0022 H   0  0  0  0  0  0  0  0  0  0  0  0
  -10.7120    2.7378    0.0003 H   0  0  0  0  0  0  0  0  0  0  0  0
   -9.4864    1.4569   -0.0002 H   0  0  0  0  0  0  0  0  0  0  0  0
   -6.7380    7.0604   -0.0001 H   0  0  0  0  0  0  0  0  0  0  0  0
   -8.5077    7.2273   -0.0003 H   0  0  0  0  0  0  0  0  0  0  0  0
   -4.0348    4.6650   -0.0013 H   0  0  0  0  0  0  0  0  0  0  0  0
   -1.9091    3.4340   -0.0009 H   0  0  0  0  0  0  0  0  0  0  0  0
  1  2  1  0  0  0  0
  1 21  1  0  0  0  0
  1 22  1  0  0  0  0
  1 23  1  0  0  0  0
  2 20  1  0  0  0  0
  2  3  2  0  0  0  0
  3  4  1  0  0  0  0
  3 24  1  0  0  0  0
  4  5  1  0  0  0  0
  4 19  1  0  0  0  0
  5 18  2  0  0  0  0
  5  6  1  0  0  0  0
  6  7  2  0  0  0  0
  6 25  1  0  0  0  0
  7  8  1  0  0  0  0
  7 26  1  0  0  0  0
  8  9  1  0  0  0  0
  8 17  2  0  0  0  0
  9 16  2  0  0  0  0
  9 10  1  0  0  0  0
 10 11  2  0  0  0  0
 11 12  1  0  0  0  0
 11 13  1  0  0  0  0
 12 27  1  0  0  0  0
 12 28  1  0  0  0  0
 13 14  2  0  0  0  0
 14 15  1  0  0  0  0
 14 16  1  0  0  0  0
 15 29  1  0  0  0  0
 15 30  1  0  0  0  0
 17 18  1  0  0  0  0
 17 31  1  0  0  0  0
 18 32  1  0  0  0  0
 19 20  2  0  0  0  0
M  END
$$$$
