
 OpenBabel03202621362D

 30 31  0  0  1  0  0  0  0  0999 V2000
    2.0575   -2.2495    0.2636 N   0  0  0  0  0  0  0  0  0  0  0  0
    0.8625   -1.6734    0.0174 C   0  0  0  0  0  0  0  0  0  0  0  0
   -0.1940   -2.3897   -0.1163 N   0  0  0  0  0  0  0  0  0  0  0  0
   -1.4014   -1.6327   -0.4667 C   0  0  0  0  0  0  0  0  0  0  0  0
   -1.4774   -0.3054    0.2711 C   0  0  1  0  0  0  0  0  0  0  0  0
   -2.7125    0.4300   -0.2029 C   0  0  0  0  0  0  0  0  0  0  0  0
   -2.7490    1.1794   -1.1680 O   0  0  0  0  0  0  0  0  0  0  0  0
   -3.7899    0.0393    0.5571 O   0  0  0  0  0  0  0  0  0  0  0  0
   -4.9603    0.7479    0.2587 C   0  0  0  0  0  0  0  0  0  0  0  0
   -6.0748    0.1386   -0.1615 C   0  0  0  0  0  0  0  0  0  0  0  0
   -7.2812    0.7323   -0.4365 O   0  0  0  0  0  0  0  0  0  0  0  0
   -7.4174    2.0598    0.0867 C   0  0  0  0  0  0  0  0  0  0  0  0
   -6.1997    2.9206   -0.1850 C   0  0  0  0  0  0  0  0  0  0  0  0
   -5.0118    2.2274    0.4240 C   0  0  0  0  0  0  0  0  0  0  0  0
   -4.1121    2.8330    1.0015 O   0  0  0  0  0  0  0  0  0  0  0  0
   -0.2196    0.5193    0.0246 C   0  0  0  0  0  0  0  0  0  0  0  0
    0.9609   -0.3274   -0.0655 N   0  0  0  0  0  0  0  0  0  0  0  0
    1.9611   -3.2593    0.2044 H   0  0  0  0  0  0  0  0  0  0  0  0
    2.7724   -1.9375   -0.3828 H   0  0  0  0  0  0  0  0  0  0  0  0
   -2.2724   -2.2460   -0.2062 H   0  0  0  0  0  0  0  0  0  0  0  0
   -1.4381   -1.4933   -1.5547 H   0  0  0  0  0  0  0  0  0  0  0  0
   -1.5600   -0.4845    1.3520 H   0  0  0  0  0  0  0  0  0  0  0  0
   -6.1291   -0.9273   -0.3547 H   0  0  0  0  0  0  0  0  0  0  0  0
   -8.3013    2.5062   -0.3811 H   0  0  0  0  0  0  0  0  0  0  0  0
   -7.6205    1.9880    1.1631 H   0  0  0  0  0  0  0  0  0  0  0  0
   -6.0185    3.0352   -1.2588 H   0  0  0  0  0  0  0  0  0  0  0  0
   -6.3229    3.9082    0.2696 H   0  0  0  0  0  0  0  0  0  0  0  0
   -0.2788    1.1252   -0.8848 H   0  0  0  0  0  0  0  0  0  0  0  0
   -0.0843    1.2222    0.8564 H   0  0  0  0  0  0  0  0  0  0  0  0
    1.7961    0.0623    0.3550 H   0  0  0  0  0  0  0  0  0  0  0  0
  1  2  1  0  0  0  0
  1 18  1  0  0  0  0
  1 19  1  0  0  0  0
  2 17  1  0  0  0  0
  2  3  2  0  0  0  0
  3  4  1  0  0  0  0
  4  5  1  0  0  0  0
  4 20  1  0  0  0  0
  4 21  1  0  0  0  0
  5  6  1  0  0  0  0
  5 16  1  0  0  0  0
  5 22  1  6  0  0  0
  6  7  2  0  0  0  0
  6  8  1  0  0  0  0
  8  9  1  0  0  0  0
  9 14  1  0  0  0  0
  9 10  2  0  0  0  0
 10 11  1  0  0  0  0
 10 23  1  0  0  0  0
 11 12  1  0  0  0  0
 12 13  1  0  0  0  0
 12 24  1  0  0  0  0
 12 25  1  0  0  0  0
 13 14  1  0  0  0  0
 13 26  1  0  0  0  0
 13 27  1  0  0  0  0
 14 15  2  0  0  0  0
 16 17  1  0  0  0  0
 16 28  1  0  0  0  0
 16 29  1  0  0  0  0
 17 30  1  0  0  0  0
M  END
$$$$
