
 OpenBabel03202621392D

 26 27  0  0  0  0  0  0  0  0999 V2000
    1.4945   -0.9706    0.0000 C   0  0  0  0  0  0  0  0  0  0  0  0
    0.5000   -0.8660    0.0000 C   0  0  0  0  0  0  0  0  0  0  0  0
   -0.3641   -0.4044    0.9735 C   0  0  0  0  0  0  0  0  0  0  0  0
   -1.4640    0.0605    0.2440 N   0  0  0  0  0  0  0  0  0  0  0  0
   -2.5234   -0.8397    0.1135 C   0  0  0  0  0  0  0  0  0  0  0  0
   -2.0998   -2.1315   -0.3221 C   0  0  0  0  0  0  0  0  0  0  0  0
   -2.8147   -3.2024    0.0000 C   0  0  0  0  0  0  0  0  0  0  0  0
   -2.8147   -4.2024    0.0000 C   0  0  0  0  0  0  0  0  0  0  0  0
   -4.1550   -2.7744    0.4850 C   0  0  0  0  0  0  0  0  0  0  0  0
   -5.2619   -3.7463    0.7598 C   0  0  0  0  0  0  0  0  0  0  0  0
   -5.8439   -3.7988    1.8304 O   0  0  0  0  0  0  0  0  0  0  0  0
   -5.5890   -4.4981   -0.3103 O   0  0  0  0  0  0  0  0  0  0  0  0
   -4.5487   -1.4699    0.7763 C   0  0  0  0  0  0  0  0  0  0  0  0
   -3.7015   -0.4666    0.6481 N   0  0  0  0  0  0  0  0  0  0  0  0
   -0.9949    0.4868   -0.9488 N   0  0  0  0  0  0  0  0  0  0  0  0
   -0.0127   -0.3461   -1.2236 N   0  0  0  0  0  0  0  0  0  0  0  0
    1.6188   -1.7176   -0.8196 H   0  0  0  0  0  0  0  0  0  0  0  0
    1.8380    0.0580   -0.2788 H   0  0  0  0  0  0  0  0  0  0  0  0
    2.5586   -1.0825    0.0000 H   0  0  0  0  0  0  0  0  0  0  0  0
   -0.3609   -0.3883    2.0535 H   0  0  0  0  0  0  0  0  0  0  0  0
   -1.1524   -2.3199   -0.8138 H   0  0  0  0  0  0  0  0  0  0  0  0
   -2.0666   -4.3738    0.8113 H   0  0  0  0  0  0  0  0  0  0  0  0
   -2.3385   -4.3918   -0.9916 H   0  0  0  0  0  0  0  0  0  0  0  0
   -2.8147   -5.2724    0.0000 H   0  0  0  0  0  0  0  0  0  0  0  0
   -5.1142   -4.2876   -1.1375 H   0  0  0  0  0  0  0  0  0  0  0  0
   -5.5397   -1.2247    1.1484 H   0  0  0  0  0  0  0  0  0  0  0  0
  1  2  1  0  0  0  0
  1 17  1  0  0  0  0
  1 18  1  0  0  0  0
  1 19  1  0  0  0  0
  2 16  1  0  0  0  0
  2  3  2  0  0  0  0
  3  4  1  0  0  0  0
  3 20  1  0  0  0  0
  4  5  1  0  0  0  0
  4 15  1  0  0  0  0
  5 14  2  0  0  0  0
  5  6  1  0  0  0  0
  6  7  2  0  0  0  0
  6 21  1  0  0  0  0
  7  8  1  0  0  0  0
  7  9  1  0  0  0  0
  8 22  1  0  0  0  0
  8 23  1  0  0  0  0
  8 24  1  0  0  0  0
  9 10  1  0  0  0  0
  9 13  2  0  0  0  0
 10 11  2  0  0  0  0
 10 12  1  0  0  0  0
 12 25  1  0  0  0  0
 13 14  1  0  0  0  0
 13 26  1  0  0  0  0
 15 16  2  0  0  0  0
M  END
$$$$
