
 OpenBabel03202621392D

 30 30  0  0  1  0  0  0  0  0999 V2000
    3.5762   -1.6967   -0.3587 C   0  0  0  0  0  0  0  0  0  0  0  0
    4.3243   -0.6011   -0.5174 C   0  0  0  0  0  0  0  0  0  0  0  0
    4.0065    0.8685   -0.4010 C   0  0  2  0  0  0  0  0  0  0  0  0
    4.5291    1.5008   -1.5747 O   0  0  0  0  0  0  0  0  0  0  0  0
    2.5981    1.5000    0.0000 C   0  0  2  0  0  0  0  0  0  0  0  0
    2.5981    2.5000    0.0000 C   0  0  0  0  0  0  0  0  0  0  0  0
    1.4464    0.7360   -0.6889 C   0  0  0  0  0  0  0  0  0  0  0  0
    1.1022    0.8138   -1.8534 O   0  0  0  0  0  0  0  0  0  0  0  0
    0.8406   -0.0411    0.2851 O   0  0  0  0  0  0  0  0  0  0  0  0
   -0.3474   -0.6993   -0.0427 C   0  0  0  0  0  0  0  0  0  0  0  0
   -0.3904   -1.9719   -0.4566 C   0  0  0  0  0  0  0  0  0  0  0  0
   -1.5170   -2.7371   -0.6248 O   0  0  0  0  0  0  0  0  0  0  0  0
   -2.6556   -2.2450    0.0922 C   0  0  0  0  0  0  0  0  0  0  0  0
   -2.8875   -0.7642   -0.1338 C   0  0  0  0  0  0  0  0  0  0  0  0
   -1.6358   -0.0216    0.2442 C   0  0  0  0  0  0  0  0  0  0  0  0
   -1.6609    1.1071    0.7308 O   0  0  0  0  0  0  0  0  0  0  0  0
    2.5300   -1.6847   -0.1105 H   0  0  0  0  0  0  0  0  0  0  0  0
    4.0225   -2.6822   -0.4837 H   0  0  0  0  0  0  0  0  0  0  0  0
    5.3761   -0.7946   -0.7393 H   0  0  0  0  0  0  0  0  0  0  0  0
    4.6880    1.1833    0.4113 H   0  0  0  0  0  0  0  0  0  0  0  0
    5.4997    1.4207   -1.5355 H   0  0  0  0  0  0  0  0  0  0  0  0
    2.5122    1.0699    1.0262 H   0  0  0  0  0  0  0  0  0  0  0  0
    3.3154    2.7252    0.8325 H   0  0  0  0  0  0  0  0  0  0  0  0
    1.5709    2.7063    0.3966 H   0  0  0  0  0  0  0  0  0  0  0  0
    2.5981    3.5700    0.0000 H   0  0  0  0  0  0  0  0  0  0  0  0
    0.4878   -2.5543   -0.7042 H   0  0  0  0  0  0  0  0  0  0  0  0
   -2.5193   -2.4703    1.1585 H   0  0  0  0  0  0  0  0  0  0  0  0
   -3.5264   -2.8154   -0.2482 H   0  0  0  0  0  0  0  0  0  0  0  0
   -3.1020   -0.5500   -1.1854 H   0  0  0  0  0  0  0  0  0  0  0  0
   -3.7189   -0.4178    0.4882 H   0  0  0  0  0  0  0  0  0  0  0  0
  1  2  2  0  0  0  0
  1 17  1  0  0  0  0
  1 18  1  0  0  0  0
  2  3  1  0  0  0  0
  2 19  1  0  0  0  0
  3  4  1  0  0  0  0
  3  5  1  0  0  0  0
  3 20  1  6  0  0  0
  4 21  1  0  0  0  0
  5  6  1  0  0  0  0
  5  7  1  0  0  0  0
  5 22  1  6  0  0  0
  6 23  1  0  0  0  0
  6 24  1  0  0  0  0
  6 25  1  0  0  0  0
  7  8  2  0  0  0  0
  7  9  1  0  0  0  0
  9 10  1  0  0  0  0
 10 15  1  0  0  0  0
 10 11  2  0  0  0  0
 11 12  1  0  0  0  0
 11 26  1  0  0  0  0
 12 13  1  0  0  0  0
 13 14  1  0  0  0  0
 13 27  1  0  0  0  0
 13 28  1  0  0  0  0
 14 15  1  0  0  0  0
 14 29  1  0  0  0  0
 14 30  1  0  0  0  0
 15 16  2  0  0  0  0
M  END
$$$$
