
 OpenBabel03202621302D

 14 13  0  0  1  0  0  0  0  0999 V2000
    3.4641    0.0000    0.0000 C   0  0  0  0  0  0  0  0  0  0  0  0
    2.5981    0.5000    0.0000 S   0  0  0  0  0  0  0  0  0  0  0  0
    1.7321    0.0000    0.0000 C   0  0  3  0  0  0  0  0  0  0  0  0
    1.2321   -0.8660    0.0000 C   0  0  0  0  0  0  0  0  0  0  0  0
    2.7456   -2.2130   -0.0000 Cl  0  0  0  0  0  0  0  0  0  0  0  0
    0.2957    1.0761   -0.0000 N   0  3  0  0  0  0  0  0  0  0  0  0
    0.5639    2.2996   -0.0000 O   0  0  0  0  0  0  0  0  0  0  0  0
   -0.9018    0.7046   -0.0000 O   0  5  0  0  0  0  0  0  0  0  0  0
    3.9231   -0.9407    0.0000 H   0  0  0  0  0  0  0  0  0  0  0  0
    4.1875    0.8410    0.0000 H   0  0  0  0  0  0  0  0  0  0  0  0
    4.3907   -0.5350    0.0000 H   0  0  0  0  0  0  0  0  0  0  0  0
    0.1559   -0.7568   -0.0000 H   0  0  0  0  0  0  0  0  0  0  0  0
    1.1033   -1.9846    0.0000 H   0  0  0  0  0  0  0  0  0  0  0  0
    0.6971   -1.7926    0.0000 H   0  0  0  0  0  0  0  0  0  0  0  0
  1  2  1  0  0  0  0
  1  9  1  0  0  0  0
  1 10  1  0  0  0  0
  1 11  1  0  0  0  0
  2  3  1  0  0  0  0
  3  4  1  0  0  0  0
  3  5  1  0  0  0  0
  3  6  1  0  0  0  0
  4 12  1  0  0  0  0
  4 13  1  0  0  0  0
  4 14  1  0  0  0  0
  6  7  2  0  0  0  0
  6  8  1  0  0  0  0
M  CHG  2   6   1   8  -1
M  END
$$$$
