
 OpenBabel03202621312D

 26 28  0  0  0  0  0  0  0  0999 V2000
   -0.9706   -1.4945    0.0000 C   0  0  0  0  0  0  0  0  0  0  0  0
   -0.8660   -0.5000    0.0000 C   0  0  0  0  0  0  0  0  0  0  0  0
   -1.6548    0.5281    0.4818 C   0  0  0  0  0  0  0  0  0  0  0  0
   -1.0389    1.7012    0.1075 N   0  0  0  0  0  0  0  0  0  0  0  0
   -1.5810    3.0462   -0.0177 C   0  0  0  0  0  0  0  0  0  0  0  0
   -3.0108    2.9662   -0.4039 C   0  0  0  0  0  0  0  0  0  0  0  0
   -3.6424    1.8724   -0.8098 N   0  0  0  0  0  0  0  0  0  0  0  0
   -4.9319    2.1037   -0.4886 C   0  0  0  0  0  0  0  0  0  0  0  0
   -5.9885    1.2030   -0.3814 C   0  0  0  0  0  0  0  0  0  0  0  0
   -7.2338    1.7330   -0.0449 C   0  0  0  0  0  0  0  0  0  0  0  0
   -8.5637    0.6567    0.1349 Cl  0  0  0  0  0  0  0  0  0  0  0  0
   -7.4085    3.1075    0.1662 C   0  0  0  0  0  0  0  0  0  0  0  0
   -6.3256    4.0081    0.1310 C   0  0  0  0  0  0  0  0  0  0  0  0
   -5.0962    3.4356   -0.1537 C   0  0  0  0  0  0  0  0  0  0  0  0
   -3.8492    4.0086   -0.0946 O   0  0  0  0  0  0  0  0  0  0  0  0
    0.2187    1.4539   -0.2700 N   0  0  0  0  0  0  0  0  0  0  0  0
    0.3350    0.1414   -0.3606 N   0  0  0  0  0  0  0  0  0  0  0  0
   -1.8487   -1.5795   -0.6865 H   0  0  0  0  0  0  0  0  0  0  0  0
   -0.0865   -1.8304   -0.5974 H   0  0  0  0  0  0  0  0  0  0  0  0
   -1.0825   -2.5586    0.0000 H   0  0  0  0  0  0  0  0  0  0  0  0
   -2.6441    0.5094    0.9159 H   0  0  0  0  0  0  0  0  0  0  0  0
   -1.0011    3.5778   -0.7783 H   0  0  0  0  0  0  0  0  0  0  0  0
   -1.4488    3.5307    0.9531 H   0  0  0  0  0  0  0  0  0  0  0  0
   -5.8194    0.1421   -0.5265 H   0  0  0  0  0  0  0  0  0  0  0  0
   -8.4029    3.4865    0.3897 H   0  0  0  0  0  0  0  0  0  0  0  0
   -6.4411    5.0623    0.3388 H   0  0  0  0  0  0  0  0  0  0  0  0
  1  2  1  0  0  0  0
  1 18  1  0  0  0  0
  1 19  1  0  0  0  0
  1 20  1  0  0  0  0
  2 17  1  0  0  0  0
  2  3  2  0  0  0  0
  3  4  1  0  0  0  0
  3 21  1  0  0  0  0
  4  5  1  0  0  0  0
  4 16  1  0  0  0  0
  5  6  1  0  0  0  0
  5 22  1  0  0  0  0
  5 23  1  0  0  0  0
  6 15  1  0  0  0  0
  6  7  2  0  0  0  0
  7  8  1  0  0  0  0
  8 14  2  0  0  0  0
  8  9  1  0  0  0  0
  9 10  2  0  0  0  0
  9 24  1  0  0  0  0
 10 11  1  0  0  0  0
 10 12  1  0  0  0  0
 12 13  2  0  0  0  0
 12 25  1  0  0  0  0
 13 14  1  0  0  0  0
 13 26  1  0  0  0  0
 14 15  1  0  0  0  0
 16 17  2  0  0  0  0
M  END
$$$$
