
 OpenBabel03202621332D

 37 38  0  0  1  0  0  0  0  0999 V2000
    5.0518    0.7040    1.7584 O   0  5  0  0  0  0  0  0  0  0  0  0
    4.4780   -0.0540    0.9324 C   0  0  0  0  0  0  0  0  0  0  0  0
    4.8510   -1.2808    0.5060 C   0  0  0  0  0  0  0  0  0  0  0  0
    4.2002   -2.0931   -0.3817 O   0  0  0  0  0  0  0  0  0  0  0  0
    2.8566   -1.7148   -0.6703 C   0  0  0  0  0  0  0  0  0  0  0  0
    2.5312   -0.2754   -0.4761 C   0  0  0  0  0  0  0  0  0  0  0  0
    3.2596    0.5192    0.3310 C   0  0  0  0  0  0  0  0  0  0  0  0
    2.9479    1.8294    0.6415 O   0  0  0  0  0  0  0  0  0  0  0  0
    1.8897    2.5057   -0.0441 C   0  0  2  0  0  0  0  0  0  0  0  0
    2.1542    4.0054    0.1550 C   0  0  0  0  0  0  0  0  0  0  0  0
    3.4219    4.3716   -0.3966 O   0  0  0  0  0  0  0  0  0  0  0  0
    0.5069    2.1473    0.5306 C   0  0  0  0  0  0  0  0  0  0  0  0
   -0.5002    2.5033   -0.4321 O   0  0  0  0  0  0  0  0  0  0  0  0
   -1.8199    2.0617   -0.1178 C   0  0  0  0  0  0  0  0  0  0  0  0
   -2.0389    0.5630   -0.1564 C   0  0  0  0  0  0  0  0  0  0  0  0
   -3.0063    0.0106    0.7051 C   0  0  0  0  0  0  0  0  0  0  0  0
   -3.1492   -1.3729    0.8230 C   0  0  0  0  0  0  0  0  0  0  0  0
   -4.3964   -2.0243    1.8128 Cl  0  0  0  0  0  0  0  0  0  0  0  0
   -2.2976   -2.2278    0.1324 C   0  0  0  0  0  0  0  0  0  0  0  0
   -1.4061   -1.6959   -0.7973 C   0  0  0  0  0  0  0  0  0  0  0  0
   -1.3495   -0.3130   -1.0064 C   0  0  0  0  0  0  0  0  0  0  0  0
   -0.5311    0.2359   -2.4259 Cl  0  0  0  0  0  0  0  0  0  0  0  0
    5.7719   -1.7436    0.8357 H   0  0  0  0  0  0  0  0  0  0  0  0
    2.6508   -1.9972   -1.7085 H   0  0  0  0  0  0  0  0  0  0  0  0
    2.1901   -2.3190   -0.0404 H   0  0  0  0  0  0  0  0  0  0  0  0
    1.6491    0.0828   -0.9608 H   0  0  0  0  0  0  0  0  0  0  0  0
    1.9527    2.3071   -1.1220 H   0  0  0  0  0  0  0  0  0  0  0  0
    1.3858    4.6158   -0.3292 H   0  0  0  0  0  0  0  0  0  0  0  0
    2.1839    4.2622    1.2206 H   0  0  0  0  0  0  0  0  0  0  0  0
    4.0401    3.6810   -0.0667 H   0  0  0  0  0  0  0  0  0  0  0  0
    0.3208    2.6825    1.4690 H   0  0  0  0  0  0  0  0  0  0  0  0
    0.4508    1.0810    0.7636 H   0  0  0  0  0  0  0  0  0  0  0  0
   -2.0800    2.4573    0.8713 H   0  0  0  0  0  0  0  0  0  0  0  0
   -2.4985    2.5248   -0.8423 H   0  0  0  0  0  0  0  0  0  0  0  0
   -3.6556    0.6643    1.2837 H   0  0  0  0  0  0  0  0  0  0  0  0
   -2.3529   -3.3034    0.2754 H   0  0  0  0  0  0  0  0  0  0  0  0
   -0.7756   -2.3645   -1.3789 H   0  0  0  0  0  0  0  0  0  0  0  0
  1  2  1  0  0  0  0
  2  7  1  0  0  0  0
  2  3  2  0  0  0  0
  3  4  1  0  0  0  0
  3 23  1  0  0  0  0
  4  5  1  0  0  0  0
  5  6  1  0  0  0  0
  5 24  1  0  0  0  0
  5 25  1  0  0  0  0
  6  7  2  0  0  0  0
  6 26  1  0  0  0  0
  7  8  1  0  0  0  0
  8  9  1  0  0  0  0
  9 10  1  0  0  0  0
  9 12  1  0  0  0  0
  9 27  1  6  0  0  0
 10 11  1  0  0  0  0
 10 28  1  0  0  0  0
 10 29  1  0  0  0  0
 11 30  1  0  0  0  0
 12 13  1  0  0  0  0
 12 31  1  0  0  0  0
 12 32  1  0  0  0  0
 13 14  1  0  0  0  0
 14 15  1  0  0  0  0
 14 33  1  0  0  0  0
 14 34  1  0  0  0  0
 15 21  2  0  0  0  0
 15 16  1  0  0  0  0
 16 17  2  0  0  0  0
 16 35  1  0  0  0  0
 17 18  1  0  0  0  0
 17 19  1  0  0  0  0
 19 20  2  0  0  0  0
 19 36  1  0  0  0  0
 20 21  1  0  0  0  0
 20 37  1  0  0  0  0
 21 22  1  0  0  0  0
M  CHG  1   1  -1
M  END
$$$$
