
 OpenBabel03202621352D

 40 40  0  0  1  0  0  0  0  0999 V2000
   -0.8660   -3.5000    0.0000 C   0  0  0  0  0  0  0  0  0  0  0  0
   -0.8660   -4.5000    0.0000 C   0  0  0  0  0  0  0  0  0  0  0  0
   -0.1698   -5.2595   -1.0151 O   0  0  0  0  0  0  0  0  0  0  0  0
    0.7834   -4.7237   -1.7832 C   0  0  0  0  0  0  0  0  0  0  0  0
    1.1648   -5.2792   -2.8070 O   0  0  0  0  0  0  0  0  0  0  0  0
    1.2158   -3.3212   -1.3812 C   0  0  1  0  0  0  0  0  0  0  0  0
    1.4208   -3.1562    0.3339 C   0  0  0  0  0  0  0  0  0  0  0  0
    2.4701   -4.0597    0.8788 C   0  0  0  0  0  0  0  0  0  0  0  0
    3.4641   -3.0000    0.0000 S   0  0  0  0  0  0  0  0  0  0  0  0
    4.3301   -3.5000    0.0000 C   0  0  0  0  0  0  0  0  0  0  0  0
    0.4220   -2.2896   -2.0347 N   0  0  0  0  0  0  0  0  0  0  0  0
    0.6579   -0.9844   -1.7677 C   0  0  0  0  0  0  0  0  0  0  0  0
    1.6381   -0.5828   -1.1585 O   0  0  0  0  0  0  0  0  0  0  0  0
   -0.3722   -0.2057   -2.2006 O   0  0  0  0  0  0  0  0  0  0  0  0
   -0.6802    0.8969   -1.3710 C   0  0  0  0  0  0  0  0  0  0  0  0
   -1.9226    1.0143   -0.8738 C   0  0  0  0  0  0  0  0  0  0  0  0
   -2.3811    2.0352   -0.0877 O   0  0  0  0  0  0  0  0  0  0  0  0
   -1.4986    3.1504    0.1416 C   0  0  0  0  0  0  0  0  0  0  0  0
   -0.0953    2.9921   -0.3447 C   0  0  0  0  0  0  0  0  0  0  0  0
    0.2888    1.9322   -1.0633 C   0  0  0  0  0  0  0  0  0  0  0  0
    1.6002    1.8561   -1.5056 O   0  0  0  0  0  0  0  0  0  0  0  0
   -1.4858   -3.3143    0.9171 H   0  0  0  0  0  0  0  0  0  0  0  0
   -1.5486   -3.3179   -0.8710 H   0  0  0  0  0  0  0  0  0  0  0  0
   -0.8660   -2.4300    0.0000 H   0  0  0  0  0  0  0  0  0  0  0  0
   -0.5352   -5.0096    0.9232 H   0  0  0  0  0  0  0  0  0  0  0  0
   -1.8670   -4.9759   -0.0754 H   0  0  0  0  0  0  0  0  0  0  0  0
    2.1632   -3.2250   -1.9208 H   0  0  0  0  0  0  0  0  0  0  0  0
    1.4261   -2.0800    0.6106 H   0  0  0  0  0  0  0  0  0  0  0  0
    0.7053   -3.4566    1.0923 H   0  0  0  0  0  0  0  0  0  0  0  0
    2.5935   -3.9969    1.9657 H   0  0  0  0  0  0  0  0  0  0  0  0
    2.3964   -5.0976    0.5392 H   0  0  0  0  0  0  0  0  0  0  0  0
    4.3419   -3.8427   -1.0544 H   0  0  0  0  0  0  0  0  0  0  0  0
    5.0238   -2.6408    0.0777 H   0  0  0  0  0  0  0  0  0  0  0  0
    5.2567   -4.0350    0.0000 H   0  0  0  0  0  0  0  0  0  0  0  0
   -0.3481   -2.5360   -2.6389 H   0  0  0  0  0  0  0  0  0  0  0  0
   -2.7020    0.2868   -1.0480 H   0  0  0  0  0  0  0  0  0  0  0  0
   -1.9436    4.0242   -0.3454 H   0  0  0  0  0  0  0  0  0  0  0  0
   -1.4952    3.3397    1.2213 H   0  0  0  0  0  0  0  0  0  0  0  0
    0.6262    3.7651   -0.0968 H   0  0  0  0  0  0  0  0  0  0  0  0
    1.8945    0.9342   -1.3371 H   0  0  0  0  0  0  0  0  0  0  0  0
  1  2  1  0  0  0  0
  1 22  1  0  0  0  0
  1 23  1  0  0  0  0
  1 24  1  0  0  0  0
  2  3  1  0  0  0  0
  2 25  1  0  0  0  0
  2 26  1  0  0  0  0
  3  4  1  0  0  0  0
  4  5  2  0  0  0  0
  4  6  1  0  0  0  0
  6  7  1  0  0  0  0
  6 11  1  0  0  0  0
  6 27  1  1  0  0  0
  7  8  1  0  0  0  0
  7 28  1  0  0  0  0
  7 29  1  0  0  0  0
  8  9  1  0  0  0  0
  8 30  1  0  0  0  0
  8 31  1  0  0  0  0
  9 10  1  0  0  0  0
 10 32  1  0  0  0  0
 10 33  1  0  0  0  0
 10 34  1  0  0  0  0
 11 12  1  0  0  0  0
 11 35  1  0  0  0  0
 12 13  2  0  0  0  0
 12 14  1  0  0  0  0
 14 15  1  0  0  0  0
 15 20  1  0  0  0  0
 15 16  2  0  0  0  0
 16 17  1  0  0  0  0
 16 36  1  0  0  0  0
 17 18  1  0  0  0  0
 18 19  1  0  0  0  0
 18 37  1  0  0  0  0
 18 38  1  0  0  0  0
 19 20  2  0  0  0  0
 19 39  1  0  0  0  0
 20 21  1  0  0  0  0
 21 40  1  0  0  0  0
M  END
$$$$
