
 OpenBabel03202621332D

 19 18  0  0  0  0  0  0  0  0999 V2000
    3.0639   -1.3740   -0.1079 C   0  0  0  0  0  0  0  0  0  0  0  0
    2.8911   -0.1893   -0.0878 C   0  0  0  0  0  0  0  0  0  0  0  0
    2.7227    1.2524    0.0263 C   0  0  0  0  0  0  0  0  0  0  0  0
    3.7849    1.8638    0.0535 O   0  0  0  0  0  0  0  0  0  0  0  0
    1.4277    1.8217    0.1558 N   0  0  0  0  0  0  0  0  0  0  0  0
    1.4579    3.2128   -0.0055 C   0  0  0  0  0  0  0  0  0  0  0  0
    2.3980    3.9926   -0.0158 O   0  0  0  0  0  0  0  0  0  0  0  0
    0.0000    1.0000    0.0000 C   0  0  0  0  0  0  0  0  0  0  0  0
   -0.8660    1.5000    0.0000 C   0  0  0  0  0  0  0  0  0  0  0  0
    0.0000    0.0000    0.0000 C   0  0  0  0  0  0  0  0  0  0  0  0
    3.1905   -2.4334   -0.0720 H   0  0  0  0  0  0  0  0  0  0  0  0
    0.4583    3.6615   -0.1057 H   0  0  0  0  0  0  0  0  0  0  0  0
    0.1650    1.0938   -1.0956 H   0  0  0  0  0  0  0  0  0  0  0  0
   -0.6285    2.3737    0.6468 H   0  0  0  0  0  0  0  0  0  0  0  0
   -1.5868    1.0206    0.7395 H   0  0  0  0  0  0  0  0  0  0  0  0
   -1.7926    2.0350    0.0000 H   0  0  0  0  0  0  0  0  0  0  0  0
   -0.8722   -0.4061    0.6089 H   0  0  0  0  0  0  0  0  0  0  0  0
    0.7750   -0.1929    0.7774 H   0  0  0  0  0  0  0  0  0  0  0  0
    0.0000   -1.0700    0.0000 H   0  0  0  0  0  0  0  0  0  0  0  0
  1  2  3  0  0  0  0
  1 11  1  0  0  0  0
  2  3  1  0  0  0  0
  3  4  2  0  0  0  0
  3  5  1  0  0  0  0
  5  6  1  0  0  0  0
  5  8  1  0  0  0  0
  6  7  2  0  0  0  0
  6 12  1  0  0  0  0
  8  9  1  0  0  0  0
  8 10  1  0  0  0  0
  8 13  1  0  0  0  0
  9 14  1  0  0  0  0
  9 15  1  0  0  0  0
  9 16  1  0  0  0  0
 10 17  1  0  0  0  0
 10 18  1  0  0  0  0
 10 19  1  0  0  0  0
M  END
$$$$
