
 OpenBabel03202621302D

 20 20  0  0  0  0  0  0  0  0999 V2000
   -0.7248    2.9074    0.0000 C   0  0  0  0  0  0  0  0  0  0  0  0
   -1.4680    2.2382    0.0000 S   0  0  0  0  0  0  0  0  0  0  0  0
   -1.2162    0.5232    0.0621 C   0  0  0  0  0  0  0  0  0  0  0  0
   -2.2121   -0.1954    0.0664 O   0  0  0  0  0  0  0  0  0  0  0  0
    0.1290   -0.0190    0.0812 C   0  0  0  0  0  0  0  0  0  0  0  0
    1.2268    0.7983    0.0790 O   0  0  0  0  0  0  0  0  0  0  0  0
    2.3238    0.0028    0.0895 C   0  0  0  0  0  0  0  0  0  0  0  0
    1.9620   -1.3181    0.0976 C   0  0  0  0  0  0  0  0  0  0  0  0
    0.5360   -1.3552    0.0947 C   0  0  0  0  0  0  0  0  0  0  0  0
   -0.3781   -2.5399    0.0934 C   0  0  0  0  0  0  0  0  0  0  0  0
    0.3697   -3.7714    0.3267 N   0  0  0  0  0  0  0  0  0  0  0  0
   -0.3475    2.7652   -1.0331 H   0  0  0  0  0  0  0  0  0  0  0  0
   -1.3297    3.8341    0.0050 H   0  0  0  0  0  0  0  0  0  0  0  0
    0.0704    3.6234    0.0000 H   0  0  0  0  0  0  0  0  0  0  0  0
    3.2761    0.5185    0.0901 H   0  0  0  0  0  0  0  0  0  0  0  0
    2.6396   -2.1616    0.1129 H   0  0  0  0  0  0  0  0  0  0  0  0
   -1.1293   -2.4370    0.8845 H   0  0  0  0  0  0  0  0  0  0  0  0
   -0.9005   -2.6084   -0.8674 H   0  0  0  0  0  0  0  0  0  0  0  0
   -0.2894   -4.5470    0.3537 H   0  0  0  0  0  0  0  0  0  0  0  0
    0.9718   -3.9480   -0.4762 H   0  0  0  0  0  0  0  0  0  0  0  0
  1  2  1  0  0  0  0
  1 12  1  0  0  0  0
  1 13  1  0  0  0  0
  1 14  1  0  0  0  0
  2  3  1  0  0  0  0
  3  4  2  0  0  0  0
  3  5  1  0  0  0  0
  5  9  2  0  0  0  0
  5  6  1  0  0  0  0
  6  7  1  0  0  0  0
  7  8  2  0  0  0  0
  7 15  1  0  0  0  0
  8  9  1  0  0  0  0
  8 16  1  0  0  0  0
  9 10  1  0  0  0  0
 10 11  1  0  0  0  0
 10 17  1  0  0  0  0
 10 18  1  0  0  0  0
 11 19  1  0  0  0  0
 11 20  1  0  0  0  0
M  END
$$$$
