
 OpenBabel03202621382D

 59 60  0  0  1  0  0  0  0  0999 V2000
   -3.4641   -5.0000    0.0000 C   0  0  0  0  0  0  0  0  0  0  0  0
   -2.5981   -4.5000    0.0000 C   0  0  0  0  0  0  0  0  0  0  0  0
   -1.7388   -4.8056    0.8828 O   0  0  0  0  0  0  0  0  0  0  0  0
   -1.9222   -3.4545   -0.9616 C   0  0  0  0  0  0  0  0  0  0  0  0
   -2.8031   -2.2465   -1.1255 C   0  0  0  0  0  0  0  0  0  0  0  0
   -4.0001   -2.7891   -1.0469 C   0  0  0  0  0  0  0  0  0  0  0  0
   -5.3712   -2.5460   -0.9132 C   0  0  0  0  0  0  0  0  0  0  0  0
   -5.6645   -1.2129   -1.3603 C   0  0  0  0  0  0  0  0  0  0  0  0
   -6.5361   -0.5767   -0.5734 C   0  0  0  0  0  0  0  0  0  0  0  0
   -7.1150   -1.4820    0.2502 C   0  0  0  0  0  0  0  0  0  0  0  0
   -6.9282   -3.0000    0.0000 C   0  0  0  0  0  0  0  0  0  0  0  0
   -7.7942   -3.5000    0.0000 C   0  0  0  0  0  0  0  0  0  0  0  0
   -6.0622   -3.5000    0.0000 C   0  0  0  0  0  0  0  0  0  0  0  0
   -6.0622   -4.5000    0.0000 C   0  0  0  0  0  0  0  0  0  0  0  0
   -2.6543   -0.9708   -0.3290 C   0  0  2  0  0  0  0  0  0  0  0  0
   -2.4149   -1.2871    1.0227 O   0  0  0  0  0  0  0  0  0  0  0  0
   -1.8822    0.1570   -1.0342 C   0  0  0  0  0  0  0  0  0  0  0  0
   -1.4127    0.0259   -2.1665 O   0  0  0  0  0  0  0  0  0  0  0  0
   -1.7950    1.4756   -0.2901 C   0  0  2  0  0  0  0  0  0  0  0  0
   -3.2136    1.9117    0.1787 C   0  0  0  0  0  0  0  0  0  0  0  0
   -3.5921    3.3892    0.0878 C   0  0  0  0  0  0  0  0  0  0  0  0
   -2.5328    4.2100   -0.3491 O   0  0  0  0  0  0  0  0  0  0  0  0
   -0.7949    1.3642    0.8715 C   0  0  0  0  0  0  0  0  0  0  0  0
   -0.9613    1.9617    1.9387 O   0  0  0  0  0  0  0  0  0  0  0  0
    0.4071    0.5204    0.6748 C   0  0  0  0  0  0  0  0  0  0  0  0
    0.4157   -0.7976    1.1465 C   0  0  0  0  0  0  0  0  0  0  0  0
    1.4446   -1.6723    0.7990 C   0  0  0  0  0  0  0  0  0  0  0  0
    2.5250   -1.2018    0.0617 C   0  0  0  0  0  0  0  0  0  0  0  0
    2.5761    0.1410   -0.3227 C   0  0  0  0  0  0  0  0  0  0  0  0
    1.5107    0.9957   -0.0257 C   0  0  0  0  0  0  0  0  0  0  0  0
    1.5527    2.3044   -0.4115 O   0  0  0  0  0  0  0  0  0  0  0  0
   -3.6678   -5.0274    1.1019 H   0  0  0  0  0  0  0  0  0  0  0  0
   -3.0668   -5.9575   -0.4118 H   0  0  0  0  0  0  0  0  0  0  0  0
   -4.3907   -5.5350    0.0000 H   0  0  0  0  0  0  0  0  0  0  0  0
   -0.9797   -3.1272   -0.5070 H   0  0  0  0  0  0  0  0  0  0  0  0
   -1.6779   -3.9194   -1.9207 H   0  0  0  0  0  0  0  0  0  0  0  0
   -4.0054   -2.8154    0.0826 H   0  0  0  0  0  0  0  0  0  0  0  0
   -5.0744   -0.6927   -2.1067 H   0  0  0  0  0  0  0  0  0  0  0  0
   -6.8043    0.4645   -0.6393 H   0  0  0  0  0  0  0  0  0  0  0  0
   -8.0263   -1.1438    0.7618 H   0  0  0  0  0  0  0  0  0  0  0  0
   -8.3569   -3.0020   -0.8376 H   0  0  0  0  0  0  0  0  0  0  0  0
   -8.2104   -3.2804    1.0261 H   0  0  0  0  0  0  0  0  0  0  0  0
   -8.7208   -4.0350    0.0000 H   0  0  0  0  0  0  0  0  0  0  0  0
   -6.4404   -4.8528   -1.0096 H   0  0  0  0  0  0  0  0  0  0  0  0
   -6.3386   -4.8148    1.0481 H   0  0  0  0  0  0  0  0  0  0  0  0
   -6.0622   -5.5700    0.0000 H   0  0  0  0  0  0  0  0  0  0  0  0
   -3.6466   -0.5275   -0.2840 H   0  0  0  0  0  0  0  0  0  0  0  0
   -3.1121   -0.8803    1.5712 H   0  0  0  0  0  0  0  0  0  0  0  0
   -1.4001    2.2039   -1.0052 H   0  0  0  0  0  0  0  0  0  0  0  0
   -3.9867    1.4066   -0.4138 H   0  0  0  0  0  0  0  0  0  0  0  0
   -3.3984    1.5741    1.2083 H   0  0  0  0  0  0  0  0  0  0  0  0
   -4.4213    3.5055   -0.6232 H   0  0  0  0  0  0  0  0  0  0  0  0
   -3.9637    3.7570    1.0505 H   0  0  0  0  0  0  0  0  0  0  0  0
   -1.8691    4.2269    0.3642 H   0  0  0  0  0  0  0  0  0  0  0  0
   -0.3854   -1.1807    1.7675 H   0  0  0  0  0  0  0  0  0  0  0  0
    1.3898   -2.7169    1.1005 H   0  0  0  0  0  0  0  0  0  0  0  0
    3.3319   -1.8814   -0.2023 H   0  0  0  0  0  0  0  0  0  0  0  0
    3.4435    0.4939   -0.8717 H   0  0  0  0  0  0  0  0  0  0  0  0
    2.4746    2.5302   -0.6238 H   0  0  0  0  0  0  0  0  0  0  0  0
  1  2  1  0  0  0  0
  1 32  1  0  0  0  0
  1 33  1  0  0  0  0
  1 34  1  0  0  0  0
  2  3  2  0  0  0  0
  2  4  1  0  0  0  0
  4  5  1  0  0  0  0
  4 35  1  0  0  0  0
  4 36  1  0  0  0  0
  5  6  2  3  0  0  0
  5 15  1  0  0  0  0
  6  7  1  0  0  0  0
  6 37  1  0  0  0  0
  7 13  2  0  0  0  0
  7  8  1  0  0  0  0
  8  9  2  0  0  0  0
  8 38  1  0  0  0  0
  9 10  1  0  0  0  0
  9 39  1  0  0  0  0
 10 11  2  0  0  0  0
 10 40  1  0  0  0  0
 11 12  1  0  0  0  0
 11 13  1  0  0  0  0
 12 41  1  0  0  0  0
 12 42  1  0  0  0  0
 12 43  1  0  0  0  0
 13 14  1  0  0  0  0
 14 44  1  0  0  0  0
 14 45  1  0  0  0  0
 14 46  1  0  0  0  0
 15 16  1  0  0  0  0
 15 17  1  0  0  0  0
 15 47  1  6  0  0  0
 16 48  1  0  0  0  0
 17 18  2  0  0  0  0
 17 19  1  0  0  0  0
 19 20  1  0  0  0  0
 19 23  1  0  0  0  0
 19 49  1  1  0  0  0
 20 21  1  0  0  0  0
 20 50  1  0  0  0  0
 20 51  1  0  0  0  0
 21 22  1  0  0  0  0
 21 52  1  0  0  0  0
 21 53  1  0  0  0  0
 22 54  1  0  0  0  0
 23 24  2  0  0  0  0
 23 25  1  0  0  0  0
 25 30  2  0  0  0  0
 25 26  1  0  0  0  0
 26 27  2  0  0  0  0
 26 55  1  0  0  0  0
 27 28  1  0  0  0  0
 27 56  1  0  0  0  0
 28 29  2  0  0  0  0
 28 57  1  0  0  0  0
 29 30  1  0  0  0  0
 29 58  1  0  0  0  0
 30 31  1  0  0  0  0
 31 59  1  0  0  0  0
M  END
$$$$
