
 OpenBabel03202621312D

 22 21  0  0  0  0  0  0  0  0999 V2000
   -2.5981    2.5000    0.0000 C   0  0  0  0  0  0  0  0  0  0  0  0
   -3.4641    2.0000    0.0000 C   0  0  0  0  0  0  0  0  0  0  0  0
   -4.3301    2.5000    0.0000 C   0  0  0  0  0  0  0  0  0  0  0  0
   -3.3261    0.7912   -1.1021 C   0  0  0  0  0  0  0  0  0  0  0  0
   -2.3333   -0.2541   -0.7536 N   0  0  0  0  0  0  0  0  0  0  0  0
   -2.7051   -1.3274    0.0359 C   0  0  0  0  0  0  0  0  0  0  0  0
   -1.9245   -2.0730    0.6176 O   0  0  0  0  0  0  0  0  0  0  0  0
   -0.8949    0.0351   -0.8549 C   0  0  0  0  0  0  0  0  0  0  0  0
   -0.1350   -0.9532   -1.6354 C   0  0  0  0  0  0  0  0  0  0  0  0
    0.4886   -1.6849   -2.2813 N   0  0  0  0  0  0  0  0  0  0  0  0
   -1.8943    1.7941    0.5195 H   0  0  0  0  0  0  0  0  0  0  0  0
   -2.7346    3.2991    0.8091 H   0  0  0  0  0  0  0  0  0  0  0  0
   -1.6715    3.0350    0.0000 H   0  0  0  0  0  0  0  0  0  0  0  0
   -3.5166    1.3815    0.9385 H   0  0  0  0  0  0  0  0  0  0  0  0
   -4.4188    2.8244   -1.0804 H   0  0  0  0  0  0  0  0  0  0  0  0
   -5.0872    1.6793    0.1587 H   0  0  0  0  0  0  0  0  0  0  0  0
   -5.2567    3.0350    0.0000 H   0  0  0  0  0  0  0  0  0  0  0  0
   -3.0589    1.1844   -2.0932 H   0  0  0  0  0  0  0  0  0  0  0  0
   -4.2916    0.2768   -1.2105 H   0  0  0  0  0  0  0  0  0  0  0  0
   -3.7936   -1.4709    0.0896 H   0  0  0  0  0  0  0  0  0  0  0  0
   -0.7639    1.0132   -1.3287 H   0  0  0  0  0  0  0  0  0  0  0  0
   -0.4834    0.0971    0.1620 H   0  0  0  0  0  0  0  0  0  0  0  0
  1  2  1  0  0  0  0
  1 11  1  0  0  0  0
  1 12  1  0  0  0  0
  1 13  1  0  0  0  0
  2  3  1  0  0  0  0
  2  4  1  0  0  0  0
  2 14  1  0  0  0  0
  3 15  1  0  0  0  0
  3 16  1  0  0  0  0
  3 17  1  0  0  0  0
  4  5  1  0  0  0  0
  4 18  1  0  0  0  0
  4 19  1  0  0  0  0
  5  6  1  0  0  0  0
  5  8  1  0  0  0  0
  6  7  2  0  0  0  0
  6 20  1  0  0  0  0
  8  9  1  0  0  0  0
  8 21  1  0  0  0  0
  8 22  1  0  0  0  0
  9 10  3  0  0  0  0
M  END
$$$$
