
 OpenBabel03202621372D

 35 34  0  0  1  0  0  0  0  0999 V2000
   -3.4641    2.0000    0.0000 C   0  0  0  0  0  0  0  0  0  0  0  0
   -4.3301    1.5000    0.0000 C   0  0  0  0  0  0  0  0  0  0  0  0
   -5.1962    2.0000    0.0000 C   0  0  0  0  0  0  0  0  0  0  0  0
   -4.3984    0.1793   -0.9767 C   0  0  2  0  0  0  0  0  0  0  0  0
   -5.3690   -0.7832   -0.4723 O   0  0  0  0  0  0  0  0  0  0  0  0
   -3.1250   -0.6770   -1.0069 C   0  0  0  0  0  0  0  0  0  0  0  0
   -2.0100   -0.1773   -1.7743 N   0  0  0  0  0  0  0  0  0  0  0  0
   -1.6105    1.2037   -1.5522 C   0  0  0  0  0  0  0  0  0  0  0  0
   -1.7321    2.0000    0.0000 C   0  0  0  0  0  0  0  0  0  0  0  0
   -1.2321    2.8660    0.0000 C   0  0  0  0  0  0  0  0  0  0  0  0
   -2.2321    2.8660    0.0000 C   0  0  0  0  0  0  0  0  0  0  0  0
   -1.0093    0.8104    1.4115 S   0  0  0  0  0  0  0  0  0  0  0  0
   -0.3702   -0.6018    0.5591 C   0  0  0  0  0  0  0  0  0  0  0  0
    0.4768   -0.5785   -0.3078 O   0  0  0  0  0  0  0  0  0  0  0  0
   -3.6033    2.3645    1.1537 H   0  0  0  0  0  0  0  0  0  0  0  0
   -3.7922    2.6215   -1.0016 H   0  0  0  0  0  0  0  0  0  0  0  0
   -2.5375    2.5350    0.0000 H   0  0  0  0  0  0  0  0  0  0  0  0
   -4.3008    0.8384    0.9157 H   0  0  0  0  0  0  0  0  0  0  0  0
   -5.2295    2.6343    0.9465 H   0  0  0  0  0  0  0  0  0  0  0  0
   -5.9588    1.2212    0.2547 H   0  0  0  0  0  0  0  0  0  0  0  0
   -6.1229    2.5350    0.0000 H   0  0  0  0  0  0  0  0  0  0  0  0
   -4.7115    0.4474   -1.9963 H   0  0  0  0  0  0  0  0  0  0  0  0
   -6.2653   -0.4420   -0.6214 H   0  0  0  0  0  0  0  0  0  0  0  0
   -3.3765   -1.6625   -1.4196 H   0  0  0  0  0  0  0  0  0  0  0  0
   -2.8466   -0.9037    0.0276 H   0  0  0  0  0  0  0  0  0  0  0  0
   -1.2050   -0.7945   -1.7301 H   0  0  0  0  0  0  0  0  0  0  0  0
   -2.2282    1.7659   -2.2748 H   0  0  0  0  0  0  0  0  0  0  0  0
   -0.5947    1.3042   -1.9628 H   0  0  0  0  0  0  0  0  0  0  0  0
   -0.2908    2.6273   -0.6408 H   0  0  0  0  0  0  0  0  0  0  0  0
   -0.6043    2.9541    1.0244 H   0  0  0  0  0  0  0  0  0  0  0  0
   -0.6971    3.7926    0.0000 H   0  0  0  0  0  0  0  0  0  0  0  0
   -2.2649    3.5262   -1.2434 H   0  0  0  0  0  0  0  0  0  0  0  0
   -2.3183    3.5007    1.2534 H   0  0  0  0  0  0  0  0  0  0  0  0
   -2.7671    3.7926    0.0000 H   0  0  0  0  0  0  0  0  0  0  0  0
   -0.8333   -1.5430    0.9056 H   0  0  0  0  0  0  0  0  0  0  0  0
  1  2  1  0  0  0  0
  1 15  1  0  0  0  0
  1 16  1  0  0  0  0
  1 17  1  0  0  0  0
  2  3  1  0  0  0  0
  2  4  1  0  0  0  0
  2 18  1  0  0  0  0
  3 19  1  0  0  0  0
  3 20  1  0  0  0  0
  3 21  1  0  0  0  0
  4  5  1  0  0  0  0
  4  6  1  0  0  0  0
  4 22  1  6  0  0  0
  5 23  1  0  0  0  0
  6  7  1  0  0  0  0
  6 24  1  0  0  0  0
  6 25  1  0  0  0  0
  7  8  1  0  0  0  0
  7 26  1  0  0  0  0
  8  9  1  0  0  0  0
  8 27  1  0  0  0  0
  8 28  1  0  0  0  0
  9 10  1  0  0  0  0
  9 11  1  0  0  0  0
  9 12  1  0  0  0  0
 10 29  1  0  0  0  0
 10 30  1  0  0  0  0
 10 31  1  0  0  0  0
 11 32  1  0  0  0  0
 11 33  1  0  0  0  0
 11 34  1  0  0  0  0
 12 13  1  0  0  0  0
 13 14  2  0  0  0  0
 13 35  1  0  0  0  0
M  END
$$$$
