
 OpenBabel03202621392D

 31 32  0  0  0  0  0  0  0  0999 V2000
    1.7321    0.0000    0.0000 C   0  0  0  0  0  0  0  0  0  0  0  0
    0.8660   -0.5000    0.0000 C   0  0  0  0  0  0  0  0  0  0  0  0
    1.0397   -1.7624    0.6383 C   0  0  0  0  0  0  0  0  0  0  0  0
    0.1365   -2.8001    0.6074 C   0  0  0  0  0  0  0  0  0  0  0  0
   -1.0125   -2.6576   -0.1421 C   0  0  0  0  0  0  0  0  0  0  0  0
   -1.7901   -3.8260   -0.1057 N   0  0  0  0  0  0  0  0  0  0  0  0
   -2.8737   -4.0748   -0.8982 C   0  0  0  0  0  0  0  0  0  0  0  0
   -2.8334   -4.1646   -2.1136 O   0  0  0  0  0  0  0  0  0  0  0  0
   -4.1287   -4.1548   -0.1081 C   0  0  0  0  0  0  0  0  0  0  0  0
   -4.5393   -2.7896    0.0646 N   0  0  0  0  0  0  0  0  0  0  0  0
   -5.2442   -2.0420   -0.8427 C   0  0  0  0  0  0  0  0  0  0  0  0
   -5.9128   -1.1636    0.0000 C   0  0  0  0  0  0  0  0  0  0  0  0
   -6.9073   -1.2681    0.0000 C   0  0  0  0  0  0  0  0  0  0  0  0
   -5.0884   -1.0092    1.1061 N   0  0  0  0  0  0  0  0  0  0  0  0
   -4.3105   -2.0881    1.1868 N   0  0  0  0  0  0  0  0  0  0  0  0
   -1.2599   -1.4186   -0.7716 C   0  0  0  0  0  0  0  0  0  0  0  0
   -2.5559   -1.0583   -1.8411 Cl  0  0  0  0  0  0  0  0  0  0  0  0
   -0.3655   -0.3439   -0.6160 C   0  0  0  0  0  0  0  0  0  0  0  0
    1.9822   -0.0586   -1.0880 H   0  0  0  0  0  0  0  0  0  0  0  0
    1.3624    1.0198    0.2616 H   0  0  0  0  0  0  0  0  0  0  0  0
    2.6588    0.5350    0.0000 H   0  0  0  0  0  0  0  0  0  0  0  0
    2.0009   -1.9942    1.1194 H   0  0  0  0  0  0  0  0  0  0  0  0
    0.4047   -3.7434    1.0744 H   0  0  0  0  0  0  0  0  0  0  0  0
   -1.7459   -4.3190    0.7819 H   0  0  0  0  0  0  0  0  0  0  0  0
   -4.8960   -4.7022   -0.6649 H   0  0  0  0  0  0  0  0  0  0  0  0
   -3.9949   -4.6320    0.8653 H   0  0  0  0  0  0  0  0  0  0  0  0
   -5.5258   -2.4881   -1.7917 H   0  0  0  0  0  0  0  0  0  0  0  0
   -7.1821   -0.1878    0.0181 H   0  0  0  0  0  0  0  0  0  0  0  0
   -7.0955   -1.7060    1.0138 H   0  0  0  0  0  0  0  0  0  0  0  0
   -7.9714   -1.3799    0.0000 H   0  0  0  0  0  0  0  0  0  0  0  0
   -0.5946    0.6088   -1.0977 H   0  0  0  0  0  0  0  0  0  0  0  0
  1  2  1  0  0  0  0
  1 19  1  0  0  0  0
  1 20  1  0  0  0  0
  1 21  1  0  0  0  0
  2 18  2  0  0  0  0
  2  3  1  0  0  0  0
  3  4  2  0  0  0  0
  3 22  1  0  0  0  0
  4  5  1  0  0  0  0
  4 23  1  0  0  0  0
  5  6  1  0  0  0  0
  5 16  2  0  0  0  0
  6  7  1  0  0  0  0
  6 24  1  0  0  0  0
  7  8  2  0  0  0  0
  7  9  1  0  0  0  0
  9 10  1  0  0  0  0
  9 25  1  0  0  0  0
  9 26  1  0  0  0  0
 10 15  1  0  0  0  0
 10 11  1  0  0  0  0
 11 12  2  0  0  0  0
 11 27  1  0  0  0  0
 12 13  1  0  0  0  0
 12 14  1  0  0  0  0
 13 28  1  0  0  0  0
 13 29  1  0  0  0  0
 13 30  1  0  0  0  0
 14 15  2  0  0  0  0
 16 17  1  0  0  0  0
 16 18  1  0  0  0  0
 18 31  1  0  0  0  0
M  END
$$$$
