
 OpenBabel03202621382D

 57 59  0  0  1  0  0  0  0  0999 V2000
    5.1962    5.0000    0.0000 C   0  0  0  0  0  0  0  0  0  0  0  0
    4.3301    4.5000    0.0000 C   0  0  0  0  0  0  0  0  0  0  0  0
    3.7637    4.2076   -1.0853 O   0  0  0  0  0  0  0  0  0  0  0  0
    3.5241    3.9840    1.1884 C   0  0  0  0  0  0  0  0  0  0  0  0
    2.2529    3.2069    0.7422 C   0  0  0  0  0  0  0  0  0  0  0  0
    1.1695    3.7938    0.6829 O   0  0  0  0  0  0  0  0  0  0  0  0
    2.4256    1.7449    0.2351 C   0  0  2  0  0  0  0  0  0  0  0  0
    2.4475    1.6272   -1.1680 O   0  0  0  0  0  0  0  0  0  0  0  0
    1.5539    0.7204    1.0161 C   0  0  0  0  0  0  0  0  0  0  0  0
    1.3866    0.9060    2.2363 O   0  0  0  0  0  0  0  0  0  0  0  0
    1.2424   -0.6685    0.3888 C   0  0  2  0  0  0  0  0  0  0  0  0
    2.5899   -1.3282    0.1526 C   0  0  0  0  0  0  0  0  0  0  0  0
    2.7983   -2.8338    0.1627 C   0  0  0  0  0  0  0  0  0  0  0  0
    4.2214   -3.2037    0.1169 N   0  0  0  0  0  0  0  0  0  0  0  0
    4.5474   -4.5068   -0.0084 N   0  0  0  0  0  0  0  0  0  0  0  0
    5.8685   -4.5568    0.0492 N   0  0  0  0  0  0  0  0  0  0  0  0
    6.3989   -3.3108    0.2290 N   0  0  0  0  0  0  0  0  0  0  0  0
    5.3869   -2.4615    0.2605 C   0  0  0  0  0  0  0  0  0  0  0  0
    5.4409   -0.9787    0.4835 C   0  0  0  0  0  0  0  0  0  0  0  0
    6.6947   -0.2298    0.2330 C   0  0  0  0  0  0  0  0  0  0  0  0
    7.9898   -0.7044    0.1669 C   0  0  0  0  0  0  0  0  0  0  0  0
    8.7406    0.3706   -0.2781 C   0  0  0  0  0  0  0  0  0  0  0  0
    7.9894    1.4479   -0.4630 N   0  0  0  0  0  0  0  0  0  0  0  0
    6.7117    1.1450    0.0000 N   0  0  0  0  0  0  0  0  0  0  0  0
    6.1239    1.9540    0.0000 C   0  0  0  0  0  0  0  0  0  0  0  0
    0.4147   -0.5604   -0.8771 C   0  0  0  0  0  0  0  0  0  0  0  0
    0.7975   -0.9447   -1.9790 O   0  0  0  0  0  0  0  0  0  0  0  0
   -0.8674    0.1586   -0.6892 C   0  0  0  0  0  0  0  0  0  0  0  0
   -0.8556    1.5092   -1.0799 C   0  0  0  0  0  0  0  0  0  0  0  0
   -1.8765    2.3504   -0.6717 C   0  0  0  0  0  0  0  0  0  0  0  0
   -2.9291    1.8207    0.0602 C   0  0  0  0  0  0  0  0  0  0  0  0
   -2.9452    0.4564    0.3942 C   0  0  0  0  0  0  0  0  0  0  0  0
   -1.9066   -0.4366    0.0674 C   0  0  0  0  0  0  0  0  0  0  0  0
   -1.9169   -1.6527    0.4609 O   0  5  0  0  0  0  0  0  0  0  0  0
    5.6581    4.6374   -0.9543 H   0  0  0  0  0  0  0  0  0  0  0  0
    4.7505    6.0145   -0.1295 H   0  0  0  0  0  0  0  0  0  0  0  0
    6.1229    5.5350    0.0000 H   0  0  0  0  0  0  0  0  0  0  0  0
    3.1938    4.8304    1.7995 H   0  0  0  0  0  0  0  0  0  0  0  0
    4.1268    3.3237    1.8187 H   0  0  0  0  0  0  0  0  0  0  0  0
    3.4223    1.4440    0.5408 H   0  0  0  0  0  0  0  0  0  0  0  0
    2.8779    2.4197   -1.5497 H   0  0  0  0  0  0  0  0  0  0  0  0
    0.6990   -1.2589    1.1346 H   0  0  0  0  0  0  0  0  0  0  0  0
    2.9913   -0.9563   -0.7964 H   0  0  0  0  0  0  0  0  0  0  0  0
    3.1809   -0.9652    0.9913 H   0  0  0  0  0  0  0  0  0  0  0  0
    2.4061   -3.2821    1.0822 H   0  0  0  0  0  0  0  0  0  0  0  0
    2.3238   -3.3122   -0.7006 H   0  0  0  0  0  0  0  0  0  0  0  0
    5.1303   -0.7625    1.5112 H   0  0  0  0  0  0  0  0  0  0  0  0
    4.7695   -0.5145   -0.2351 H   0  0  0  0  0  0  0  0  0  0  0  0
    8.3327   -1.7150    0.3485 H   0  0  0  0  0  0  0  0  0  0  0  0
    9.7971    0.4101   -0.5128 H   0  0  0  0  0  0  0  0  0  0  0  0
    6.6741    2.6779    0.6615 H   0  0  0  0  0  0  0  0  0  0  0  0
    5.3020    1.6382    0.6661 H   0  0  0  0  0  0  0  0  0  0  0  0
    5.4950    2.8196    0.0000 H   0  0  0  0  0  0  0  0  0  0  0  0
   -0.0137    1.9108   -1.6329 H   0  0  0  0  0  0  0  0  0  0  0  0
   -1.8306    3.4105   -0.8944 H   0  0  0  0  0  0  0  0  0  0  0  0
   -3.7381    2.4601    0.3957 H   0  0  0  0  0  0  0  0  0  0  0  0
   -3.7884    0.0742    0.9696 H   0  0  0  0  0  0  0  0  0  0  0  0
  1  2  1  0  0  0  0
  1 35  1  0  0  0  0
  1 36  1  0  0  0  0
  1 37  1  0  0  0  0
  2  3  2  0  0  0  0
  2  4  1  0  0  0  0
  4  5  1  0  0  0  0
  4 38  1  0  0  0  0
  4 39  1  0  0  0  0
  5  6  2  0  0  0  0
  5  7  1  0  0  0  0
  7  8  1  0  0  0  0
  7  9  1  0  0  0  0
  7 40  1  1  0  0  0
  8 41  1  0  0  0  0
  9 10  2  0  0  0  0
  9 11  1  0  0  0  0
 11 12  1  0  0  0  0
 11 26  1  0  0  0  0
 11 42  1  1  0  0  0
 12 13  1  0  0  0  0
 12 43  1  0  0  0  0
 12 44  1  0  0  0  0
 13 14  1  0  0  0  0
 13 45  1  0  0  0  0
 13 46  1  0  0  0  0
 14 18  1  0  0  0  0
 14 15  1  0  0  0  0
 15 16  2  0  0  0  0
 16 17  1  0  0  0  0
 17 18  2  0  0  0  0
 18 19  1  0  0  0  0
 19 20  1  0  0  0  0
 19 47  1  0  0  0  0
 19 48  1  0  0  0  0
 20 24  1  0  0  0  0
 20 21  2  0  0  0  0
 21 22  1  0  0  0  0
 21 49  1  0  0  0  0
 22 23  2  0  0  0  0
 22 50  1  0  0  0  0
 23 24  1  0  0  0  0
 24 25  1  0  0  0  0
 25 51  1  0  0  0  0
 25 52  1  0  0  0  0
 25 53  1  0  0  0  0
 26 27  2  0  0  0  0
 26 28  1  0  0  0  0
 28 33  2  0  0  0  0
 28 29  1  0  0  0  0
 29 30  2  0  0  0  0
 29 54  1  0  0  0  0
 30 31  1  0  0  0  0
 30 55  1  0  0  0  0
 31 32  2  0  0  0  0
 31 56  1  0  0  0  0
 32 33  1  0  0  0  0
 32 57  1  0  0  0  0
 33 34  1  0  0  0  0
M  CHG  1  34  -1
M  END
$$$$
