
 OpenBabel03202621352D

 14 13  0  0  1  0  0  0  0  0999 V2000
    3.4862    1.0323    0.9357 O   0  0  0  0  0  0  0  0  0  0  0  0
    3.2300    1.5780   -0.1228 C   0  0  0  0  0  0  0  0  0  0  0  0
    1.9929    1.8473   -0.6059 O   0  0  0  0  0  0  0  0  0  0  0  0
    0.8891    1.4366    0.2343 C   0  0  1  0  0  0  0  0  0  0  0  0
   -0.2245    2.3936   -0.1696 C   0  0  0  0  0  0  0  0  0  0  0  0
   -1.2958    2.1557   -1.4392 S   0  0  0  0  0  0  0  0  0  0  0  0
    0.6180   -0.0632    0.0705 C   0  0  0  0  0  0  0  0  0  0  0  0
   -0.7528   -0.6619    1.1089 S   0  0  0  0  0  0  0  0  0  0  0  0
    3.9846    1.9326   -0.8431 H   0  0  0  0  0  0  0  0  0  0  0  0
    1.1224    1.6701    1.2824 H   0  0  0  0  0  0  0  0  0  0  0  0
   -0.2349    3.3469    0.3885 H   0  0  0  0  0  0  0  0  0  0  0  0
    1.5101   -0.6308    0.3551 H   0  0  0  0  0  0  0  0  0  0  0  0
    0.4224   -0.3257   -0.9739 H   0  0  0  0  0  0  0  0  0  0  0  0
   -1.7447   -0.1783    0.3427 H   0  0  0  0  0  0  0  0  0  0  0  0
  1  2  2  0  0  0  0
  2  3  1  0  0  0  0
  2  9  1  0  0  0  0
  3  4  1  0  0  0  0
  4  5  1  0  0  0  0
  4  7  1  0  0  0  0
  4 10  1  1  0  0  0
  5  6  2  0  0  0  0
  5 11  1  0  0  0  0
  7  8  1  0  0  0  0
  7 12  1  0  0  0  0
  7 13  1  0  0  0  0
  8 14  1  0  0  0  0
M  END
$$$$
