
 OpenBabel03202621382D

 41 42  0  0  1  0  0  0  0  0999 V2000
   -0.2788   -1.7601    0.0000 C   0  0  0  0  0  0  0  0  0  0  0  0
   -0.5878   -0.8090    0.0000 C   0  0  0  0  0  0  0  0  0  0  0  0
   -0.0643    0.1669   -0.8911 C   0  0  0  0  0  0  0  0  0  0  0  0
   -0.1225    1.3295   -0.1242 N   0  0  0  0  0  0  0  0  0  0  0  0
   -1.4235    2.0307   -0.0790 C   0  0  0  0  0  0  0  0  0  0  0  0
   -2.3406    1.1631   -0.9233 C   0  0  1  0  0  0  0  0  0  0  0  0
   -2.9388   -0.1419   -0.2794 C   0  0  0  0  0  0  0  0  0  0  0  0
   -3.6847   -0.6923   -1.5104 C   0  0  0  0  0  0  0  0  0  0  0  0
   -4.0176    0.5282   -2.3940 C   0  0  0  0  0  0  0  0  0  0  0  0
   -3.3730    1.7326   -1.7670 N   0  0  0  0  0  0  0  0  0  0  0  0
   -3.9951    2.8451   -1.3995 C   0  0  0  0  0  0  0  0  0  0  0  0
   -3.4442    3.8858   -0.9870 O   0  0  0  0  0  0  0  0  0  0  0  0
   -5.3304    2.6953   -1.2747 O   0  0  0  0  0  0  0  0  0  0  0  0
   -5.9545    1.9945    0.0000 C   0  0  0  0  0  0  0  0  0  0  0  0
   -6.3613    1.0810    0.0000 C   0  0  0  0  0  0  0  0  0  0  0  0
   -5.3667    1.1855    0.0000 C   0  0  0  0  0  0  0  0  0  0  0  0
   -6.8681    2.4013    0.0000 C   0  0  0  0  0  0  0  0  0  0  0  0
    0.2919    0.9301    1.0926 N   0  0  0  0  0  0  0  0  0  0  0  0
   -0.3759   -0.2056    1.2663 N   0  0  0  0  0  0  0  0  0  0  0  0
   -1.0905   -2.2300   -0.5990 H   0  0  0  0  0  0  0  0  0  0  0  0
    0.6611   -1.7577   -0.6116 H   0  0  0  0  0  0  0  0  0  0  0  0
    0.0518   -2.7777    0.0000 H   0  0  0  0  0  0  0  0  0  0  0  0
    0.0863    0.1430   -1.9729 H   0  0  0  0  0  0  0  0  0  0  0  0
   -1.7153    2.0860    0.9853 H   0  0  0  0  0  0  0  0  0  0  0  0
   -1.2220    3.0435   -0.4439 H   0  0  0  0  0  0  0  0  0  0  0  0
   -1.7887    0.8631   -1.7857 H   0  0  0  0  0  0  0  0  0  0  0  0
   -3.3069    0.1012    0.7245 H   0  0  0  0  0  0  0  0  0  0  0  0
   -2.5386   -1.0584    0.0845 H   0  0  0  0  0  0  0  0  0  0  0  0
   -2.9877   -1.3557   -2.0355 H   0  0  0  0  0  0  0  0  0  0  0  0
   -4.5490   -1.3058   -1.2396 H   0  0  0  0  0  0  0  0  0  0  0  0
   -5.0768    0.6651   -2.5637 H   0  0  0  0  0  0  0  0  0  0  0  0
   -3.5099    0.4005   -3.3503 H   0  0  0  0  0  0  0  0  0  0  0  0
   -6.9361    0.8469   -1.0853 H   0  0  0  0  0  0  0  0  0  0  0  0
   -7.0556    0.8976    1.0327 H   0  0  0  0  0  0  0  0  0  0  0  0
   -6.7966    0.1035    0.0000 H   0  0  0  0  0  0  0  0  0  0  0  0
   -5.1843    0.9101    1.2750 H   0  0  0  0  0  0  0  0  0  0  0  0
   -4.3959    1.7428    0.2828 H   0  0  0  0  0  0  0  0  0  0  0  0
   -4.7378    0.3199    0.0000 H   0  0  0  0  0  0  0  0  0  0  0  0
   -6.6451    3.3234    0.6146 H   0  0  0  0  0  0  0  0  0  0  0  0
   -7.1472    2.7715   -1.0571 H   0  0  0  0  0  0  0  0  0  0  0  0
   -7.8456    2.8365    0.0000 H   0  0  0  0  0  0  0  0  0  0  0  0
  1  2  1  0  0  0  0
  1 20  1  0  0  0  0
  1 21  1  0  0  0  0
  1 22  1  0  0  0  0
  2 19  1  0  0  0  0
  2  3  2  0  0  0  0
  3  4  1  0  0  0  0
  3 23  1  0  0  0  0
  4  5  1  0  0  0  0
  4 18  1  0  0  0  0
  5 24  1  0  0  0  0
  5 25  1  0  0  0  0
  6  5  1  0  0  0  0
  6  7  1  0  0  0  0
  6 10  1  0  0  0  0
  6 26  1  6  0  0  0
  7  8  1  0  0  0  0
  7 27  1  0  0  0  0
  7 28  1  0  0  0  0
  8  9  1  0  0  0  0
  8 29  1  0  0  0  0
  8 30  1  0  0  0  0
  9 10  1  0  0  0  0
  9 31  1  0  0  0  0
  9 32  1  0  0  0  0
 10 11  1  0  0  0  0
 11 12  2  0  0  0  0
 11 13  1  0  0  0  0
 13 14  1  0  0  0  0
 14 15  1  0  0  0  0
 14 16  1  0  0  0  0
 14 17  1  0  0  0  0
 15 33  1  0  0  0  0
 15 34  1  0  0  0  0
 15 35  1  0  0  0  0
 16 36  1  0  0  0  0
 16 37  1  0  0  0  0
 16 38  1  0  0  0  0
 17 39  1  0  0  0  0
 17 40  1  0  0  0  0
 17 41  1  0  0  0  0
 18 19  2  0  0  0  0
M  END
$$$$
