
 OpenBabel03202621352D

 26 27  0  0  0  0  0  0  0  0999 V2000
    2.0283   -2.0575    0.0131 N   0  0  0  0  0  0  0  0  0  0  0  0
    0.8774   -1.2866   -0.1520 C   0  0  0  0  0  0  0  0  0  0  0  0
   -0.2083   -1.9392   -0.6095 N   0  0  0  0  0  0  0  0  0  0  0  0
   -1.3496   -1.2081   -0.6532 C   0  0  0  0  0  0  0  0  0  0  0  0
   -1.4293    0.1071   -0.2083 C   0  0  0  0  0  0  0  0  0  0  0  0
   -2.5799    0.8543   -0.2032 O   0  0  0  0  0  0  0  0  0  0  0  0
   -3.8064    0.2980    0.1049 C   0  0  0  0  0  0  0  0  0  0  0  0
   -4.0408   -0.7974    0.8537 C   0  0  0  0  0  0  0  0  0  0  0  0
   -5.2625   -1.3709    1.1070 O   0  0  0  0  0  0  0  0  0  0  0  0
   -6.2684   -0.9775    0.1694 C   0  0  0  0  0  0  0  0  0  0  0  0
   -6.3683    0.5273    0.0708 C   0  0  0  0  0  0  0  0  0  0  0  0
   -5.0170    1.0752   -0.3060 C   0  0  0  0  0  0  0  0  0  0  0  0
   -4.9059    2.1614   -0.8707 O   0  0  0  0  0  0  0  0  0  0  0  0
   -0.3292    0.7818    0.1911 N   0  0  0  0  0  0  0  0  0  0  0  0
    0.8232    0.0828    0.2074 C   0  0  0  0  0  0  0  0  0  0  0  0
    1.9583    0.7947    0.6154 N   0  0  0  0  0  0  0  0  0  0  0  0
    1.8562   -2.9838   -0.3638 H   0  0  0  0  0  0  0  0  0  0  0  0
    2.8608   -1.6113   -0.3448 H   0  0  0  0  0  0  0  0  0  0  0  0
   -2.2072   -1.7334   -1.0581 H   0  0  0  0  0  0  0  0  0  0  0  0
   -3.2717   -1.3669    1.3604 H   0  0  0  0  0  0  0  0  0  0  0  0
   -6.0404   -1.4299   -0.8049 H   0  0  0  0  0  0  0  0  0  0  0  0
   -7.2209   -1.3982    0.5069 H   0  0  0  0  0  0  0  0  0  0  0  0
   -6.6633    0.9687    1.0283 H   0  0  0  0  0  0  0  0  0  0  0  0
   -7.0949    0.8035   -0.6996 H   0  0  0  0  0  0  0  0  0  0  0  0
    2.7057    0.7147   -0.0619 H   0  0  0  0  0  0  0  0  0  0  0  0
    1.6657    1.7599    0.7480 H   0  0  0  0  0  0  0  0  0  0  0  0
  1  2  1  0  0  0  0
  1 17  1  0  0  0  0
  1 18  1  0  0  0  0
  2 15  2  0  0  0  0
  2  3  1  0  0  0  0
  3  4  2  0  0  0  0
  4  5  1  0  0  0  0
  4 19  1  0  0  0  0
  5  6  1  0  0  0  0
  5 14  2  0  0  0  0
  6  7  1  0  0  0  0
  7 12  1  0  0  0  0
  7  8  2  0  0  0  0
  8  9  1  0  0  0  0
  8 20  1  0  0  0  0
  9 10  1  0  0  0  0
 10 11  1  0  0  0  0
 10 21  1  0  0  0  0
 10 22  1  0  0  0  0
 11 12  1  0  0  0  0
 11 23  1  0  0  0  0
 11 24  1  0  0  0  0
 12 13  2  0  0  0  0
 14 15  1  0  0  0  0
 15 16  1  0  0  0  0
 16 25  1  0  0  0  0
 16 26  1  0  0  0  0
M  END
$$$$
