
 OpenBabel03202621332D

 26 26  0  0  1  0  0  0  0  0999 V2000
    2.5543    1.2586    0.0000 C   0  0  0  0  0  0  0  0  0  0  0  0
    1.6207    1.6170    0.0000 S   0  0  0  0  0  0  0  0  0  0  0  0
    0.1351    1.4297   -0.2143 C   0  0  0  0  0  0  0  0  0  0  0  0
   -0.4977    2.2197    0.2299 O   0  0  0  0  0  0  0  0  0  0  0  0
    1.0000    0.0000    0.0000 C   0  0  2  0  0  0  0  0  0  0  0  0
    1.9991   -0.0432    0.0000 C   0  0  0  0  0  0  0  0  0  0  0  0
    0.7906   -2.0115    0.2007 C   0  0  0  0  0  0  0  0  0  0  0  0
   -0.2433   -2.8650   -0.2750 C   0  0  0  0  0  0  0  0  0  0  0  0
   -1.2872   -1.9317   -0.0593 C   0  0  1  0  0  0  0  0  0  0  0  0
   -2.8628   -1.8833   -0.2207 N   0  0  0  0  0  0  0  0  0  0  0  0
   -0.7853   -0.5990   -0.3760 C   0  0  0  0  0  0  0  0  0  0  0  0
    2.6133    2.3899    0.0127 H   0  0  0  0  0  0  0  0  0  0  0  0
    3.5355    1.8856    0.0068 H   0  0  0  0  0  0  0  0  0  0  0  0
    3.5532    0.8751    0.0000 H   0  0  0  0  0  0  0  0  0  0  0  0
    2.5695   -1.0519    0.0497 H   0  0  0  0  0  0  0  0  0  0  0  0
    2.0328   -0.2379    1.2169 H   0  0  0  0  0  0  0  0  0  0  0  0
    3.0681   -0.0894    0.0000 H   0  0  0  0  0  0  0  0  0  0  0  0
    1.6300   -2.0829   -0.6392 H   0  0  0  0  0  0  0  0  0  0  0  0
    1.6476   -2.7236    0.5282 H   0  0  0  0  0  0  0  0  0  0  0  0
    0.3370   -3.7464    0.0097 H   0  0  0  0  0  0  0  0  0  0  0  0
   -0.8103   -3.7193    0.1825 H   0  0  0  0  0  0  0  0  0  0  0  0
   -1.7756   -2.6766   -0.6475 H   0  0  0  0  0  0  0  0  0  0  0  0
   -3.3367   -0.9958    0.1556 H   0  0  0  0  0  0  0  0  0  0  0  0
   -3.4654   -2.6441    0.2306 H   0  0  0  0  0  0  0  0  0  0  0  0
   -1.2650    0.3652   -0.3183 H   0  0  0  0  0  0  0  0  0  0  0  0
   -1.6202   -0.2822    0.2626 H   0  0  0  0  0  0  0  0  0  0  0  0
  1  2  1  0  0  0  0
  1 12  1  0  0  0  0
  1 13  1  0  0  0  0
  1 14  1  0  0  0  0
  2  3  1  0  0  0  0
  3  4  2  0  0  0  0
  5  3  1  6  0  0  0
  5 11  1  0  0  0  0
  5  6  1  0  0  0  0
  5  7  1  0  0  0  0
  6 15  1  0  0  0  0
  6 16  1  0  0  0  0
  6 17  1  0  0  0  0
  7  8  1  0  0  0  0
  7 18  1  0  0  0  0
  7 19  1  0  0  0  0
  8  9  1  0  0  0  0
  8 20  1  0  0  0  0
  8 21  1  0  0  0  0
  9 10  1  0  0  0  0
  9 11  1  0  0  0  0
  9 22  1  6  0  0  0
 10 23  1  0  0  0  0
 10 24  1  0  0  0  0
 11 25  1  0  0  0  0
 11 26  1  0  0  0  0
M  END
$$$$
