
 OpenBabel03202621332D

 29 30  0  0  0  0  0  0  0  0999 V2000
   -0.1280   -2.6736    0.0000 C   0  0  0  0  0  0  0  0  0  0  0  0
    0.2788   -1.7601    0.0000 C   0  0  0  0  0  0  0  0  0  0  0  0
   -0.6115   -0.6006    0.4008 C   0  0  0  0  0  0  0  0  0  0  0  0
   -1.6972   -0.4573    1.2406 C   0  0  0  0  0  0  0  0  0  0  0  0
   -2.0424    0.9153    1.2166 C   0  0  0  0  0  0  0  0  0  0  0  0
   -1.1821    1.5357    0.3253 C   0  0  0  0  0  0  0  0  0  0  0  0
   -1.0470    2.8952   -0.1687 C   0  0  0  0  0  0  0  0  0  0  0  0
    0.0126    3.4027   -0.5225 O   0  0  0  0  0  0  0  0  0  0  0  0
   -2.2109    3.6373   -0.1782 O   0  0  0  0  0  0  0  0  0  0  0  0
   -3.4754    3.0669   -0.4326 C   0  0  0  0  0  0  0  0  0  0  0  0
   -3.7423    2.2060   -1.4269 C   0  0  0  0  0  0  0  0  0  0  0  0
   -4.9465    1.5867   -1.6591 O   0  0  0  0  0  0  0  0  0  0  0  0
   -5.8271    1.6175   -0.5290 C   0  0  0  0  0  0  0  0  0  0  0  0
   -5.9835    3.0209    0.0188 C   0  0  0  0  0  0  0  0  0  0  0  0
   -4.6168    3.5111    0.4097 C   0  0  0  0  0  0  0  0  0  0  0  0
   -4.4424    4.2719    1.3594 O   0  0  0  0  0  0  0  0  0  0  0  0
   -0.2906    0.6073   -0.1440 O   0  0  0  0  0  0  0  0  0  0  0  0
   -0.1698   -2.8693    1.1025 H   0  0  0  0  0  0  0  0  0  0  0  0
    0.7361   -3.2610   -0.4029 H   0  0  0  0  0  0  0  0  0  0  0  0
   -0.5633   -3.6511    0.0000 H   0  0  0  0  0  0  0  0  0  0  0  0
    0.6146   -1.4337   -1.0037 H   0  0  0  0  0  0  0  0  0  0  0  0
    1.2002   -1.5832    0.5916 H   0  0  0  0  0  0  0  0  0  0  0  0
   -2.1678   -1.2446    1.8138 H   0  0  0  0  0  0  0  0  0  0  0  0
   -2.8312    1.3914    1.7826 H   0  0  0  0  0  0  0  0  0  0  0  0
   -3.0170    1.8977   -2.1700 H   0  0  0  0  0  0  0  0  0  0  0  0
   -5.4400    0.9303    0.2360 H   0  0  0  0  0  0  0  0  0  0  0  0
   -6.7972    1.2290   -0.8535 H   0  0  0  0  0  0  0  0  0  0  0  0
   -6.3907    3.7038   -0.7334 H   0  0  0  0  0  0  0  0  0  0  0  0
   -6.6328    3.0135    0.8994 H   0  0  0  0  0  0  0  0  0  0  0  0
  1  2  1  0  0  0  0
  1 18  1  0  0  0  0
  1 19  1  0  0  0  0
  1 20  1  0  0  0  0
  2  3  1  0  0  0  0
  2 21  1  0  0  0  0
  2 22  1  0  0  0  0
  3 17  1  0  0  0  0
  3  4  2  0  0  0  0
  4  5  1  0  0  0  0
  4 23  1  0  0  0  0
  5  6  2  0  0  0  0
  5 24  1  0  0  0  0
  6  7  1  0  0  0  0
  6 17  1  0  0  0  0
  7  8  2  0  0  0  0
  7  9  1  0  0  0  0
  9 10  1  0  0  0  0
 10 15  1  0  0  0  0
 10 11  2  0  0  0  0
 11 12  1  0  0  0  0
 11 25  1  0  0  0  0
 12 13  1  0  0  0  0
 13 14  1  0  0  0  0
 13 26  1  0  0  0  0
 13 27  1  0  0  0  0
 14 15  1  0  0  0  0
 14 28  1  0  0  0  0
 14 29  1  0  0  0  0
 15 16  2  0  0  0  0
M  END
$$$$
