
 OpenBabel03202621312D

 25 26  0  0  0  0  0  0  0  0999 V2000
    1.0934    1.6637    0.0000 C   0  0  0  0  0  0  0  0  0  0  0  0
    1.8366    0.9945    0.0000 N   0  0  0  0  0  0  0  0  0  0  0  0
    3.1904    1.3592   -0.0000 C   0  0  0  0  0  0  0  0  0  0  0  0
    4.0221    0.3522    0.0000 N   0  0  0  0  0  0  0  0  0  0  0  0
    3.2294   -0.7420   -0.0000 C   0  0  0  0  0  0  0  0  0  0  0  0
    1.8799   -0.4258   -0.0000 C   0  0  0  0  0  0  0  0  0  0  0  0
    0.7219   -1.3699   -0.0000 C   0  0  0  0  0  0  0  0  0  0  0  0
    0.8519   -2.7458    0.0000 C   0  0  0  0  0  0  0  0  0  0  0  0
   -0.3132   -3.5572    0.0000 C   0  0  0  0  0  0  0  0  0  0  0  0
   -1.6178   -3.0156    0.0000 C   0  0  0  0  0  0  0  0  0  0  0  0
   -1.7639   -1.6467   -0.0000 C   0  0  0  0  0  0  0  0  0  0  0  0
   -3.1442   -0.5292    0.0000 S   0  0  0  0  0  0  0  0  0  0  0  0
   -4.6068   -1.4150    0.0000 C   0  0  0  0  0  0  0  0  0  0  0  0
   -5.6854   -0.8375   -0.0000 O   0  0  0  0  0  0  0  0  0  0  0  0
   -0.5817   -0.9048   -0.0000 C   0  0  0  0  0  0  0  0  0  0  0  0
    1.4786    2.7006    0.0000 H   0  0  0  0  0  0  0  0  0  0  0  0
    0.1268    1.2739    0.0000 H   0  0  0  0  0  0  0  0  0  0  0  0
    0.2982    2.3797    0.0000 H   0  0  0  0  0  0  0  0  0  0  0  0
    3.5067    2.3971   -0.0000 H   0  0  0  0  0  0  0  0  0  0  0  0
    3.6841   -1.7252    0.0000 H   0  0  0  0  0  0  0  0  0  0  0  0
    1.8269   -3.2322    0.0000 H   0  0  0  0  0  0  0  0  0  0  0  0
   -0.2051   -4.6535   -0.0000 H   0  0  0  0  0  0  0  0  0  0  0  0
   -2.4641   -3.6688    0.0000 H   0  0  0  0  0  0  0  0  0  0  0  0
   -4.5238   -2.5038   -0.0000 H   0  0  0  0  0  0  0  0  0  0  0  0
   -0.8511    0.1114   -0.0000 H   0  0  0  0  0  0  0  0  0  0  0  0
  1  2  1  0  0  0  0
  1 16  1  0  0  0  0
  1 17  1  0  0  0  0
  1 18  1  0  0  0  0
  2  6  1  0  0  0  0
  2  3  1  0  0  0  0
  3  4  2  0  0  0  0
  3 19  1  0  0  0  0
  4  5  1  0  0  0  0
  5  6  2  0  0  0  0
  5 20  1  0  0  0  0
  6  7  1  0  0  0  0
  7 15  2  0  0  0  0
  7  8  1  0  0  0  0
  8  9  2  0  0  0  0
  8 21  1  0  0  0  0
  9 10  1  0  0  0  0
  9 22  1  0  0  0  0
 10 11  2  0  0  0  0
 10 23  1  0  0  0  0
 11 12  1  0  0  0  0
 11 15  1  0  0  0  0
 12 13  1  0  0  0  0
 13 14  2  0  0  0  0
 13 24  1  0  0  0  0
 15 25  1  0  0  0  0
M  END
$$$$
