
 OpenBabel03202621402D

 65 68  0  0  1  0  0  0  0  0999 V2000
   -2.8987   -4.7181    0.0408 C   0  0  0  0  0  0  0  0  0  0  0  0
   -3.8189   -3.4996    0.0867 C   0  0  0  0  0  0  0  0  0  0  0  0
   -5.0386   -3.6067    0.0957 O   0  0  0  0  0  0  0  0  0  0  0  0
   -3.0621   -2.2314    0.1138 C   0  0  0  0  0  0  0  0  0  0  0  0
   -3.5401   -0.8472    0.4662 C   0  0  0  0  0  0  0  0  0  0  0  0
   -4.7188   -0.6172    0.7301 O   0  0  0  0  0  0  0  0  0  0  0  0
   -2.5071    0.2873    0.1551 C   0  0  1  0  0  0  0  0  0  0  0  0
   -2.7993    1.7667    0.6178 C   0  0  0  0  0  0  0  0  0  0  0  0
   -3.7630    2.0162    1.3503 O   0  0  0  0  0  0  0  0  0  0  0  0
   -2.1038    2.9284   -0.1828 C   0  0  2  0  0  0  0  0  0  0  0  0
   -2.4962    4.3273    0.3009 C   0  0  0  0  0  0  0  0  0  0  0  0
   -3.9568    4.7100    0.1080 C   0  0  0  0  0  0  0  0  0  0  0  0
   -4.6780    3.7623   -0.6680 O   0  0  0  0  0  0  0  0  0  0  0  0
   -0.5931    2.9439   -0.2553 C   0  0  0  0  0  0  0  0  0  0  0  0
    0.0363    3.6246   -1.0621 O   0  0  0  0  0  0  0  0  0  0  0  0
    0.0345    1.9051    0.5554 C   0  0  0  0  0  0  0  0  0  0  0  0
   -0.4997   -0.0134    0.0000 C   0  0  0  0  0  0  0  0  0  0  0  0
   -0.6581   -1.1740    1.6581 C   0  0  0  0  0  0  0  0  0  0  0  0
    0.2573   -0.7284    3.2354 C   0  0  0  0  0  0  0  0  0  0  0  0
    1.1291    0.9154    3.4072 C   0  0  0  0  0  0  0  0  0  0  0  0
    0.9940    2.2425    2.1070 C   0  0  0  0  0  0  0  0  0  0  0  0
    1.6383    3.3363    2.2508 O   0  5  0  0  0  0  0  0  0  0  0  0
   -0.4997   -0.0134    0.0000 N   0  0  0  0  0  0  0  0  0  0  0  0
   -0.0116   -1.7834   -0.8878 C   0  0  0  0  0  0  0  0  0  0  0  0
   -0.6840   -2.5636   -1.5305 O   0  0  0  0  0  0  0  0  0  0  0  0
    2.0122   -1.7374   -0.4688 C   0  0  2  0  0  0  0  0  0  0  0  0
    2.2268   -0.3649    1.1798 C   0  0  1  0  0  0  0  0  0  0  0  0
    0.3953    0.4228    1.6779 C   0  0  0  0  0  0  0  0  0  0  0  0
   -0.6565    0.8796    2.3629 O   0  0  0  0  0  0  0  0  0  0  0  0
    2.7141   -1.4308    1.9456 C   0  0  1  0  0  0  0  0  0  0  0  0
    4.0575   -1.8246    1.4061 C   0  0  0  0  0  0  0  0  0  0  0  0
    3.8662   -2.7146    0.4306 C   0  0  0  0  0  0  0  0  0  0  0  0
    2.3828   -2.8923    0.2483 C   0  0  1  0  0  0  0  0  0  0  0  0
    1.5497   -1.7740    0.9228 C   0  0  0  0  0  0  0  0  0  0  0  0
    0.8536   -0.4928    0.0000 C   0  0  0  0  0  0  0  0  0  0  0  0
    2.1591    0.4984   -1.0331 C   0  0  0  0  0  0  0  0  0  0  0  0
    0.0000    0.0000    0.0000 C   0  0  0  0  0  0  0  0  0  0  0  0
   -3.4044   -5.5700   -0.4179 H   0  0  0  0  0  0  0  0  0  0  0  0
   -2.0159   -4.4944   -0.5642 H   0  0  0  0  0  0  0  0  0  0  0  0
   -2.5658   -4.9666    1.0516 H   0  0  0  0  0  0  0  0  0  0  0  0
   -2.6816   -2.1294   -0.8980 H   0  0  0  0  0  0  0  0  0  0  0  0
   -2.3628   -2.4507    0.8579 H   0  0  0  0  0  0  0  0  0  0  0  0
   -2.7998    0.4360   -0.9161 H   0  0  0  0  0  0  0  0  0  0  0  0
   -2.4338    2.7937   -1.2232 H   0  0  0  0  0  0  0  0  0  0  0  0
   -2.2194    4.4533    1.3559 H   0  0  0  0  0  0  0  0  0  0  0  0
   -1.8936    5.0818   -0.2271 H   0  0  0  0  0  0  0  0  0  0  0  0
   -4.0211    5.6788   -0.3979 H   0  0  0  0  0  0  0  0  0  0  0  0
   -4.4534    4.8155    1.0772 H   0  0  0  0  0  0  0  0  0  0  0  0
   -4.9050    3.0440   -0.0405 H   0  0  0  0  0  0  0  0  0  0  0  0
   -1.3407   -0.3174   -1.2957 H   0  0  0  0  0  0  0  0  0  0  0  0
   -0.8094   -2.2551    1.5834 H   0  0  0  0  0  0  0  0  0  0  0  0
    0.4967   -1.5061    3.9621 H   0  0  0  0  0  0  0  0  0  0  0  0
    1.8538    1.0824    4.1999 H   0  0  0  0  0  0  0  0  0  0  0  0
    2.5853   -1.5635   -1.3992 H   0  0  0  0  0  0  0  0  0  0  0  0
    2.9470    0.4637    1.0286 H   0  0  0  0  0  0  0  0  0  0  0  0
    2.5855   -1.4598    3.0166 H   0  0  0  0  0  0  0  0  0  0  0  0
    4.9851   -1.2821    1.5812 H   0  0  0  0  0  0  0  0  0  0  0  0
    4.6378   -2.9889   -0.2846 H   0  0  0  0  0  0  0  0  0  0  0  0
    1.9730   -3.8002   -0.1615 H   0  0  0  0  0  0  0  0  0  0  0  0
    1.9542    0.3620   -2.1124 H   0  0  0  0  0  0  0  0  0  0  0  0
    2.1224    1.5771   -0.8059 H   0  0  0  0  0  0  0  0  0  0  0  0
    3.2095    0.2221   -0.8863 H   0  0  0  0  0  0  0  0  0  0  0  0
    0.3979    1.1009   -1.0141 H   0  0  0  0  0  0  0  0  0  0  0  0
    0.2340   -0.0817   -1.5605 H   0  0  0  0  0  0  0  0  0  0  0  0
   -0.9267    0.5350    0.0000 H   0  0  0  0  0  0  0  0  0  0  0  0
  1  2  1  0  0  0  0
  1 38  1  0  0  0  0
  1 39  1  0  0  0  0
  1 40  1  0  0  0  0
  2  3  2  0  0  0  0
  2  4  1  0  0  0  0
  4  5  1  0  0  0  0
  4 41  1  0  0  0  0
  4 42  1  0  0  0  0
  5  6  2  0  0  0  0
  7  5  1  0  0  0  0
  7  8  1  0  0  0  0
  7 23  1  0  0  0  0
  7 43  1  6  0  0  0
  8  9  2  0  0  0  0
  8 10  1  0  0  0  0
 10 11  1  0  0  0  0
 10 14  1  0  0  0  0
 10 44  1  1  0  0  0
 11 12  1  0  0  0  0
 11 45  1  0  0  0  0
 11 46  1  0  0  0  0
 12 13  1  0  0  0  0
 12 47  1  0  0  0  0
 12 48  1  0  0  0  0
 13 49  1  0  0  0  0
 14 15  2  0  0  0  0
 14 16  1  0  0  0  0
 16 21  2  0  0  0  0
 16 17  1  0  0  0  0
 17 18  2  0  0  0  0
 17 50  1  0  0  0  0
 18 19  1  0  0  0  0
 18 51  1  0  0  0  0
 19 20  2  0  0  0  0
 19 52  1  0  0  0  0
 20 21  1  0  0  0  0
 20 53  1  0  0  0  0
 21 22  1  0  0  0  0
 23 28  1  0  0  0  0
 23 24  1  0  0  0  0
 24 25  2  0  0  0  0
 26 24  1  0  0  0  0
 26 27  1  0  0  0  0
 26 33  1  0  0  0  0
 26 54  1  1  0  0  0
 27 28  1  0  0  0  0
 27 30  1  0  0  0  0
 27 55  1  6  0  0  0
 28 29  2  0  0  0  0
 30 31  1  0  0  0  0
 30 34  1  0  0  0  0
 30 56  1  6  0  0  0
 31 32  2  0  0  0  0
 31 57  1  0  0  0  0
 32 58  1  0  0  0  0
 33 32  1  0  0  0  0
 33 34  1  0  0  0  0
 33 59  1  6  0  0  0
 34 35  2  0  0  0  0
 35 36  1  0  0  0  0
 35 37  1  0  0  0  0
 36 60  1  0  0  0  0
 36 61  1  0  0  0  0
 36 62  1  0  0  0  0
 37 63  1  0  0  0  0
 37 64  1  0  0  0  0
 37 65  1  0  0  0  0
M  CHG  1  22  -1
M  END
$$$$
