
 OpenBabel03202621382D

 24 24  0  0  1  0  0  0  0  0999 V2000
    2.5981   -1.5000    0.0000 C   0  0  0  0  0  0  0  0  0  0  0  0
    2.5981   -0.5000    0.0000 C   0  0  0  0  0  0  0  0  0  0  0  0
    1.2307    0.3089    0.1227 C   0  0  2  0  0  0  0  0  0  0  0  0
    1.3506    1.7818   -1.0212 S   0  0  0  0  0  0  0  0  0  0  0  0
    2.4790    2.7816   -0.1103 C   0  0  0  0  0  0  0  0  0  0  0  0
    3.4048    2.3370    0.5514 O   0  0  0  0  0  0  0  0  0  0  0  0
   -0.1423   -0.3737   -0.0411 C   0  0  0  0  0  0  0  0  0  0  0  0
   -0.3401   -1.7505   -0.2629 C   0  0  0  0  0  0  0  0  0  0  0  0
   -1.6176   -2.3244   -0.2857 C   0  0  0  0  0  0  0  0  0  0  0  0
   -2.7474   -1.5328   -0.1244 C   0  0  0  0  0  0  0  0  0  0  0  0
   -2.5948   -0.1692    0.0784 C   0  0  0  0  0  0  0  0  0  0  0  0
   -1.3141    0.3874    0.1419 C   0  0  0  0  0  0  0  0  0  0  0  0
   -1.2310    1.6985    0.4174 F   0  0  0  0  0  0  0  0  0  0  0  0
    2.3314   -1.6823    1.0712 H   0  0  0  0  0  0  0  0  0  0  0  0
    3.6966   -1.6955   -0.1067 H   0  0  0  0  0  0  0  0  0  0  0  0
    2.5981   -2.5700    0.0000 H   0  0  0  0  0  0  0  0  0  0  0  0
    3.0392   -0.1189   -0.9397 H   0  0  0  0  0  0  0  0  0  0  0  0
    3.2526   -0.0054    0.7451 H   0  0  0  0  0  0  0  0  0  0  0  0
    1.2061    0.7106    1.1465 H   0  0  0  0  0  0  0  0  0  0  0  0
    2.3009    3.8662   -0.1905 H   0  0  0  0  0  0  0  0  0  0  0  0
    0.4829   -2.4422   -0.4052 H   0  0  0  0  0  0  0  0  0  0  0  0
   -1.7235   -3.3977   -0.4256 H   0  0  0  0  0  0  0  0  0  0  0  0
   -3.7392   -1.9806   -0.1474 H   0  0  0  0  0  0  0  0  0  0  0  0
   -3.4611    0.4708    0.2078 H   0  0  0  0  0  0  0  0  0  0  0  0
  1  2  1  0  0  0  0
  1 14  1  0  0  0  0
  1 15  1  0  0  0  0
  1 16  1  0  0  0  0
  2 17  1  0  0  0  0
  2 18  1  0  0  0  0
  3  2  1  0  0  0  0
  3  4  1  0  0  0  0
  3  7  1  0  0  0  0
  3 19  1  6  0  0  0
  4  5  1  0  0  0  0
  5  6  2  0  0  0  0
  5 20  1  0  0  0  0
  7 12  2  0  0  0  0
  7  8  1  0  0  0  0
  8  9  2  0  0  0  0
  8 21  1  0  0  0  0
  9 10  1  0  0  0  0
  9 22  1  0  0  0  0
 10 11  2  0  0  0  0
 10 23  1  0  0  0  0
 11 12  1  0  0  0  0
 11 24  1  0  0  0  0
 12 13  1  0  0  0  0
M  END
$$$$
