
 OpenBabel03202621312D

 36 36  0  0  1  0  0  0  0  0999 V2000
    0.8660   -2.5000    0.0000 C   0  0  0  0  0  0  0  0  0  0  0  0
    1.7321   -3.0000    0.0000 S   0  0  0  0  0  0  0  0  0  0  0  0
    3.2731   -2.2755    0.5887 C   0  0  0  0  0  0  0  0  0  0  0  0
    3.9427   -1.2578   -0.3325 C   0  0  2  0  0  0  0  0  0  0  0  0
    5.3608   -1.2815   -0.1611 O   0  0  0  0  0  0  0  0  0  0  0  0
    3.3858    0.1164   -0.0274 C   0  0  0  0  0  0  0  0  0  0  0  0
    2.2645    0.2648   -0.8901 O   0  0  0  0  0  0  0  0  0  0  0  0
    1.1941    0.8979   -0.2961 C   0  0  0  0  0  0  0  0  0  0  0  0
    1.2905    2.2995   -0.2033 C   0  0  0  0  0  0  0  0  0  0  0  0
    2.5286    3.1148   -0.3543 C   0  0  0  0  0  0  0  0  0  0  0  0
    0.1133    2.8964    0.0824 C   0  0  0  0  0  0  0  0  0  0  0  0
   -0.9340    2.0120    0.1104 C   0  0  0  0  0  0  0  0  0  0  0  0
   -0.8660    0.5000    0.0000 C   0  0  0  0  0  0  0  0  0  0  0  0
   -1.7321    0.0000    0.0000 C   0  0  0  0  0  0  0  0  0  0  0  0
    0.0000    0.0000    0.0000 C   0  0  0  0  0  0  0  0  0  0  0  0
    0.0000   -1.0000    0.0000 C   0  0  0  0  0  0  0  0  0  0  0  0
    0.7356   -2.7855   -1.1428 H   0  0  0  0  0  0  0  0  0  0  0  0
    0.3763   -3.4028    0.5938 H   0  0  0  0  0  0  0  0  0  0  0  0
   -0.0607   -1.9650    0.0000 H   0  0  0  0  0  0  0  0  0  0  0  0
    3.9557   -3.1373    0.6264 H   0  0  0  0  0  0  0  0  0  0  0  0
    3.2036   -1.9430    1.6290 H   0  0  0  0  0  0  0  0  0  0  0  0
    3.7726   -1.5250   -1.3848 H   0  0  0  0  0  0  0  0  0  0  0  0
    5.5619   -1.0592    0.7642 H   0  0  0  0  0  0  0  0  0  0  0  0
    3.1124    0.2109    1.0305 H   0  0  0  0  0  0  0  0  0  0  0  0
    4.1311    0.8852   -0.2463 H   0  0  0  0  0  0  0  0  0  0  0  0
    3.2037    2.7045   -1.1084 H   0  0  0  0  0  0  0  0  0  0  0  0
    2.2929    4.1349   -0.6729 H   0  0  0  0  0  0  0  0  0  0  0  0
    3.0456    3.1708    0.6076 H   0  0  0  0  0  0  0  0  0  0  0  0
   -0.0196    3.9622    0.1864 H   0  0  0  0  0  0  0  0  0  0  0  0
   -1.9342    2.4592    0.2054 H   0  0  0  0  0  0  0  0  0  0  0  0
   -2.2411    0.3949    0.9253 H   0  0  0  0  0  0  0  0  0  0  0  0
   -2.2063    0.3826   -0.9469 H   0  0  0  0  0  0  0  0  0  0  0  0
   -2.6588   -0.5350    0.0000 H   0  0  0  0  0  0  0  0  0  0  0  0
   -0.6755   -1.2079    1.1307 H   0  0  0  0  0  0  0  0  0  0  0  0
    0.8864   -0.8521    0.8517 H   0  0  0  0  0  0  0  0  0  0  0  0
    0.0000   -2.0700    0.0000 H   0  0  0  0  0  0  0  0  0  0  0  0
  1  2  1  0  0  0  0
  1 17  1  0  0  0  0
  1 18  1  0  0  0  0
  1 19  1  0  0  0  0
  2  3  1  0  0  0  0
  3  4  1  0  0  0  0
  3 20  1  0  0  0  0
  3 21  1  0  0  0  0
  4  5  1  0  0  0  0
  4  6  1  0  0  0  0
  4 22  1  6  0  0  0
  5 23  1  0  0  0  0
  6  7  1  0  0  0  0
  6 24  1  0  0  0  0
  6 25  1  0  0  0  0
  7  8  1  0  0  0  0
  8 15  2  0  0  0  0
  8  9  1  0  0  0  0
  9 10  1  0  0  0  0
  9 11  2  0  0  0  0
 10 26  1  0  0  0  0
 10 27  1  0  0  0  0
 10 28  1  0  0  0  0
 11 12  1  0  0  0  0
 11 29  1  0  0  0  0
 12 13  2  0  0  0  0
 12 30  1  0  0  0  0
 13 14  1  0  0  0  0
 13 15  1  0  0  0  0
 14 31  1  0  0  0  0
 14 32  1  0  0  0  0
 14 33  1  0  0  0  0
 15 16  1  0  0  0  0
 16 34  1  0  0  0  0
 16 35  1  0  0  0  0
 16 36  1  0  0  0  0
M  END
$$$$
