
 OpenBabel03202621382D

 30 30  0  0  1  0  0  0  0  0999 V2000
    2.5981    4.5000    0.0000 C   0  0  0  0  0  0  0  0  0  0  0  0
    1.7321    5.0000    0.0000 C   0  0  2  0  0  0  0  0  0  0  0  0
    1.6150    6.1849    0.7981 O   0  0  0  0  0  0  0  0  0  0  0  0
    0.5875    3.9567    0.3558 C   0  0  0  0  0  0  0  0  0  0  0  0
   -0.4887    4.3627    0.7992 O   0  0  0  0  0  0  0  0  0  0  0  0
    0.7930    2.6073    0.1557 O   0  0  0  0  0  0  0  0  0  0  0  0
    2.0130    2.0232   -0.3821 C   0  0  0  0  0  0  0  0  0  0  0  0
    2.0576    0.5107   -0.3701 C   0  0  0  0  0  0  0  0  0  0  0  0
    0.9848   -0.0107   -1.1238 O   0  0  0  0  0  0  0  0  0  0  0  0
    0.4622   -1.1499   -0.5644 C   0  0  0  0  0  0  0  0  0  0  0  0
    1.1764   -2.1497   -0.0096 C   0  0  0  0  0  0  0  0  0  0  0  0
    0.6666   -3.2838    0.5696 O   0  0  0  0  0  0  0  0  0  0  0  0
   -0.6277   -3.6009    0.0608 C   0  0  0  0  0  0  0  0  0  0  0  0
   -1.6072   -2.4513    0.1913 C   0  0  0  0  0  0  0  0  0  0  0  0
   -1.0183   -1.2233   -0.4443 C   0  0  0  0  0  0  0  0  0  0  0  0
   -1.7298   -0.2742   -0.7699 O   0  0  0  0  0  0  0  0  0  0  0  0
    2.8106    4.4541    1.1015 H   0  0  0  0  0  0  0  0  0  0  0  0
    3.2698    5.2863   -0.4289 H   0  0  0  0  0  0  0  0  0  0  0  0
    3.5247    3.9650    0.0000 H   0  0  0  0  0  0  0  0  0  0  0  0
    1.3816    5.3246   -0.9942 H   0  0  0  0  0  0  0  0  0  0  0  0
    0.6587    6.3896    0.8378 H   0  0  0  0  0  0  0  0  0  0  0  0
    2.1679    2.3996   -1.3980 H   0  0  0  0  0  0  0  0  0  0  0  0
    2.8368    2.2569    0.2912 H   0  0  0  0  0  0  0  0  0  0  0  0
    2.0413    0.1887    0.6792 H   0  0  0  0  0  0  0  0  0  0  0  0
    3.0017    0.1769   -0.8231 H   0  0  0  0  0  0  0  0  0  0  0  0
    2.2541   -2.1589    0.0609 H   0  0  0  0  0  0  0  0  0  0  0  0
   -0.5121   -3.9111   -0.9878 H   0  0  0  0  0  0  0  0  0  0  0  0
   -0.9946   -4.4679    0.6163 H   0  0  0  0  0  0  0  0  0  0  0  0
   -1.8123   -2.2248    1.2444 H   0  0  0  0  0  0  0  0  0  0  0  0
   -2.5327   -2.7008   -0.3321 H   0  0  0  0  0  0  0  0  0  0  0  0
  1 17  1  0  0  0  0
  1 18  1  0  0  0  0
  1 19  1  0  0  0  0
  2  1  1  0  0  0  0
  2  3  1  0  0  0  0
  2  4  1  0  0  0  0
  2 20  1  6  0  0  0
  3 21  1  0  0  0  0
  4  5  2  0  0  0  0
  4  6  1  0  0  0  0
  6  7  1  0  0  0  0
  7  8  1  0  0  0  0
  7 22  1  0  0  0  0
  7 23  1  0  0  0  0
  8  9  1  0  0  0  0
  8 24  1  0  0  0  0
  8 25  1  0  0  0  0
  9 10  1  0  0  0  0
 10 15  1  0  0  0  0
 10 11  2  0  0  0  0
 11 12  1  0  0  0  0
 11 26  1  0  0  0  0
 12 13  1  0  0  0  0
 13 14  1  0  0  0  0
 13 27  1  0  0  0  0
 13 28  1  0  0  0  0
 14 15  1  0  0  0  0
 14 29  1  0  0  0  0
 14 30  1  0  0  0  0
 15 16  2  0  0  0  0
M  END
$$$$
