
 OpenBabel03202621302D

 19 19  0  0  1  0  0  0  0  0999 V2000
   -0.8660   -1.5000    0.0000 C   0  0  0  0  0  0  0  0  0  0  0  0
   -0.8660   -0.5000    0.0000 C   0  0  1  0  0  0  0  0  0  0  0  0
   -2.0766    0.2339    0.7044 C   0  0  0  0  0  0  0  0  0  0  0  0
   -1.9668    1.7167    0.5950 C   0  0  0  0  0  0  0  0  0  0  0  0
   -0.7810    2.3132    0.4495 C   0  0  0  0  0  0  0  0  0  0  0  0
    0.5010    1.5565    0.4638 C   0  0  0  0  0  0  0  0  0  0  0  0
    1.5301    2.2252    0.4840 O   0  0  0  0  0  0  0  0  0  0  0  0
    0.4185    0.1679    0.4314 N   0  0  0  0  0  0  0  0  0  0  0  0
    1.6271   -0.4988    0.3020 C   0  0  0  0  0  0  0  0  0  0  0  0
    2.6728   -0.2831    0.9039 O   0  0  0  0  0  0  0  0  0  0  0  0
   -1.8549   -1.7180   -0.4729 H   0  0  0  0  0  0  0  0  0  0  0  0
   -0.8978   -1.7104    1.0972 H   0  0  0  0  0  0  0  0  0  0  0  0
   -0.8660   -2.5700    0.0000 H   0  0  0  0  0  0  0  0  0  0  0  0
   -0.9133   -0.1068   -1.0342 H   0  0  0  0  0  0  0  0  0  0  0  0
   -2.1411   -0.0263    1.7696 H   0  0  0  0  0  0  0  0  0  0  0  0
   -3.0235   -0.0713    0.2372 H   0  0  0  0  0  0  0  0  0  0  0  0
   -2.8758    2.3110    0.6321 H   0  0  0  0  0  0  0  0  0  0  0  0
   -0.6878    3.3911    0.3732 H   0  0  0  0  0  0  0  0  0  0  0  0
    1.5546   -1.3816   -0.3545 H   0  0  0  0  0  0  0  0  0  0  0  0
  1 11  1  0  0  0  0
  1 12  1  0  0  0  0
  1 13  1  0  0  0  0
  2  1  1  0  0  0  0
  2  3  1  0  0  0  0
  2  8  1  0  0  0  0
  2 14  1  6  0  0  0
  3  4  1  0  0  0  0
  3 15  1  0  0  0  0
  3 16  1  0  0  0  0
  4  5  2  0  0  0  0
  4 17  1  0  0  0  0
  5  6  1  0  0  0  0
  5 18  1  0  0  0  0
  6  7  2  0  0  0  0
  6  8  1  0  0  0  0
  8  9  1  0  0  0  0
  9 10  2  0  0  0  0
  9 19  1  0  0  0  0
M  END
$$$$
