
 OpenBabel03202621282D

 11 12  0  0  1  0  0  0  0  0999 V2000
    2.2601    2.2601    0.0000 C   0  0  0  0  0  0  0  0  0  0  0  0
    1.9511    1.3090    0.0000 C   0  0  1  0  0  0  0  0  0  0  0  0
    2.5388    0.5000    0.0000 C   0  0  0  0  0  0  0  0  0  0  0  0
    1.9511   -0.3090    0.0000 C   0  0  0  0  0  0  0  0  0  0  0  0
    1.0000   -0.0000    0.0000 C   0  0  1  0  0  0  0  0  0  0  0  0
    0.0000    0.0000    0.0000 C   0  0  0  0  0  0  0  0  0  0  0  0
    0.0000    1.0000    0.0000 C   0  0  1  0  0  0  0  0  0  0  0  0
   -0.7071    1.7071    0.0000 O   0  0  0  0  0  0  0  0  0  0  0  0
   -0.4483    2.6730    0.0000 C   0  0  0  0  0  0  0  0  0  0  0  0
   -1.1554    3.3801    0.0000 O   0  0  0  0  0  0  0  0  0  0  0  0
    1.0000    1.0000    0.0000 C   0  0  3  0  0  0  0  0  0  0  0  0
  2  1  1  1  0  0  0
  2  3  1  0  0  0  0
  2 11  1  0  0  0  0
  3  4  2  0  0  0  0
  5  4  1  1  0  0  0
  5  6  1  0  0  0  0
  5 11  1  0  0  0  0
  6  7  1  0  0  0  0
  7  8  1  1  0  0  0
  7 11  1  0  0  0  0
  8  9  1  0  0  0  0
  9 10  2  0  0  0  0
M  END
$$$$
