
 OpenBabel03202621312D

 24 25  0  0  0  0  0  0  0  0999 V2000
   -0.2788   -1.7601    0.0000 C   0  0  0  0  0  0  0  0  0  0  0  0
   -0.5878   -0.8090    0.0000 C   0  0  0  0  0  0  0  0  0  0  0  0
   -1.8456   -0.3185   -0.0000 C   0  0  0  0  0  0  0  0  0  0  0  0
   -1.8385    1.0532   -0.0000 N   0  0  0  0  0  0  0  0  0  0  0  0
   -2.8649    2.0706   -0.0000 C   0  0  0  0  0  0  0  0  0  0  0  0
   -2.5405    3.2553    0.0000 O   0  0  0  0  0  0  0  0  0  0  0  0
   -4.3472    1.6951   -0.0000 C   0  0  0  0  0  0  0  0  0  0  0  0
   -4.7077    0.4245    0.0000 C   0  0  0  0  0  0  0  0  0  0  0  0
   -5.7871   -0.4606   -0.0000 C   0  0  0  0  0  0  0  0  0  0  0  0
   -5.5898   -1.8510   -0.0000 C   0  0  0  0  0  0  0  0  0  0  0  0
   -6.8470   -2.4603   -0.0000 C   0  0  0  0  0  0  0  0  0  0  0  0
   -7.7390   -1.4227   -0.0000 C   0  0  0  0  0  0  0  0  0  0  0  0
   -7.1177   -0.2130   -0.0000 O   0  0  0  0  0  0  0  0  0  0  0  0
   -0.5274    1.4170   -0.0000 N   0  0  0  0  0  0  0  0  0  0  0  0
    0.2152    0.3122    0.0000 N   0  0  0  0  0  0  0  0  0  0  0  0
   -1.1500   -2.4353    0.0000 H   0  0  0  0  0  0  0  0  0  0  0  0
    0.8224   -1.7559    0.0000 H   0  0  0  0  0  0  0  0  0  0  0  0
    0.0518   -2.7777    0.0000 H   0  0  0  0  0  0  0  0  0  0  0  0
   -2.6282   -1.0382   -0.0000 H   0  0  0  0  0  0  0  0  0  0  0  0
   -5.0389    2.5272   -0.0000 H   0  0  0  0  0  0  0  0  0  0  0  0
   -3.9237   -0.2286    0.0000 H   0  0  0  0  0  0  0  0  0  0  0  0
   -4.6321   -2.3621   -0.0000 H   0  0  0  0  0  0  0  0  0  0  0  0
   -7.0511   -3.5225   -0.0000 H   0  0  0  0  0  0  0  0  0  0  0  0
   -8.8169   -1.3811   -0.0000 H   0  0  0  0  0  0  0  0  0  0  0  0
  1  2  1  0  0  0  0
  1 16  1  0  0  0  0
  1 17  1  0  0  0  0
  1 18  1  0  0  0  0
  2 15  1  0  0  0  0
  2  3  2  0  0  0  0
  3  4  1  0  0  0  0
  3 19  1  0  0  0  0
  4  5  1  0  0  0  0
  4 14  1  0  0  0  0
  5  6  2  0  0  0  0
  5  7  1  0  0  0  0
  7  8  2  3  0  0  0
  7 20  1  0  0  0  0
  8  9  1  0  0  0  0
  8 21  1  0  0  0  0
  9 13  1  0  0  0  0
  9 10  2  0  0  0  0
 10 11  1  0  0  0  0
 10 22  1  0  0  0  0
 11 12  2  0  0  0  0
 11 23  1  0  0  0  0
 12 13  1  0  0  0  0
 12 24  1  0  0  0  0
 14 15  2  0  0  0  0
M  END
$$$$
