
 OpenBabel03202621342D

 18 18  0  0  0  0  0  0  0  0999 V2000
    1.6750    2.0878    0.0000 C   0  0  0  0  0  0  0  0  0  0  0  0
    0.8090    1.5878    0.0000 S   0  0  0  0  0  0  0  0  0  0  0  0
    1.2537    0.1234    0.0000 C   0  0  0  0  0  0  0  0  0  0  0  0
    2.1891   -0.7307   -0.0000 N   0  0  0  0  0  0  0  0  0  0  0  0
    1.4925   -1.8444   -0.0000 N   0  0  0  0  0  0  0  0  0  0  0  0
    0.2139   -1.5089   -0.0000 C   0  0  0  0  0  0  0  0  0  0  0  0
   -0.9900   -2.7698   -0.0000 S   0  0  0  0  0  0  0  0  0  0  0  0
    0.1514   -4.1108   -0.0000 C   0  0  0  0  0  0  0  0  0  0  0  0
   -0.2571   -5.2583    0.0000 O   0  0  0  0  0  0  0  0  0  0  0  0
    0.0000    0.0000    0.0000 N   0  0  0  0  0  0  0  0  0  0  0  0
   -0.9511    0.3090    0.0000 C   0  0  0  0  0  0  0  0  0  0  0  0
    2.6277    1.5134   -0.0000 H   0  0  0  0  0  0  0  0  0  0  0  0
    1.4019    3.1510   -0.0000 H   0  0  0  0  0  0  0  0  0  0  0  0
    2.6016    2.6228    0.0000 H   0  0  0  0  0  0  0  0  0  0  0  0
    1.2314   -3.9167    0.0000 H   0  0  0  0  0  0  0  0  0  0  0  0
   -1.2253    1.3973    0.0000 H   0  0  0  0  0  0  0  0  0  0  0  0
   -1.6921   -0.4989    0.0000 H   0  0  0  0  0  0  0  0  0  0  0  0
   -1.9687    0.6396    0.0000 H   0  0  0  0  0  0  0  0  0  0  0  0
  1  2  1  0  0  0  0
  1 12  1  0  0  0  0
  1 13  1  0  0  0  0
  1 14  1  0  0  0  0
  2  3  1  0  0  0  0
  3 10  1  0  0  0  0
  3  4  2  0  0  0  0
  4  5  1  0  0  0  0
  5  6  2  0  0  0  0
  6  7  1  0  0  0  0
  6 10  1  0  0  0  0
  7  8  1  0  0  0  0
  8  9  2  0  0  0  0
  8 15  1  0  0  0  0
 10 11  1  0  0  0  0
 11 16  1  0  0  0  0
 11 17  1  0  0  0  0
 11 18  1  0  0  0  0
M  END
$$$$
