
 OpenBabel03202621322D

 21 21  0  0  1  0  0  0  0  0999 V2000
    2.2953   -1.9260    0.0000 C   0  0  0  0  0  0  0  0  0  0  0  0
    2.5032   -0.9479    0.0000 S   0  0  0  0  0  0  0  0  0  0  0  0
    1.1183    0.0801   -0.2899 C   0  0  0  0  0  0  0  0  0  0  0  0
    1.2752    1.1218   -0.9182 O   0  0  0  0  0  0  0  0  0  0  0  0
   -0.2138   -0.2963    0.3546 C   0  0  1  0  0  0  0  0  0  0  0  0
   -0.7771   -1.6563   -0.0737 C   0  0  0  0  0  0  0  0  0  0  0  0
   -2.2969   -1.5096   -0.1376 C   0  0  0  0  0  0  0  0  0  0  0  0
   -2.5963   -0.0730    0.2472 C   0  0  1  0  0  0  0  0  0  0  0  0
   -3.6168    0.4101   -0.4960 F   0  0  0  0  0  0  0  0  0  0  0  0
   -1.3196    0.6821   -0.0513 C   0  0  0  0  0  0  0  0  0  0  0  0
    2.2392   -2.1027   -1.0936 H   0  0  0  0  0  0  0  0  0  0  0  0
    3.2734   -2.3086    0.3484 H   0  0  0  0  0  0  0  0  0  0  0  0
    2.0728   -2.9726    0.0000 H   0  0  0  0  0  0  0  0  0  0  0  0
   -0.0915   -0.2652    1.4439 H   0  0  0  0  0  0  0  0  0  0  0  0
   -0.4948   -2.4381    0.6399 H   0  0  0  0  0  0  0  0  0  0  0  0
   -0.3994   -1.9617   -1.0570 H   0  0  0  0  0  0  0  0  0  0  0  0
   -2.6644   -1.7345   -1.1445 H   0  0  0  0  0  0  0  0  0  0  0  0
   -2.7912   -2.2064    0.5481 H   0  0  0  0  0  0  0  0  0  0  0  0
   -2.8695    0.0065    1.3054 H   0  0  0  0  0  0  0  0  0  0  0  0
   -1.2649    1.6215    0.5092 H   0  0  0  0  0  0  0  0  0  0  0  0
   -1.2744    0.9405   -1.1165 H   0  0  0  0  0  0  0  0  0  0  0  0
  1  2  1  0  0  0  0
  1 11  1  0  0  0  0
  1 12  1  0  0  0  0
  1 13  1  0  0  0  0
  2  3  1  0  0  0  0
  3  4  2  0  0  0  0
  5  3  1  0  0  0  0
  5  6  1  0  0  0  0
  5 10  1  0  0  0  0
  5 14  1  6  0  0  0
  6  7  1  0  0  0  0
  6 15  1  0  0  0  0
  6 16  1  0  0  0  0
  7  8  1  0  0  0  0
  7 17  1  0  0  0  0
  7 18  1  0  0  0  0
  8  9  1  0  0  0  0
  8 10  1  0  0  0  0
  8 19  1  6  0  0  0
 10 20  1  0  0  0  0
 10 21  1  0  0  0  0
M  END
$$$$
