
 OpenBabel03202621392D

 18 18  0  0  0  0  0  0  0  0999 V2000
    3.0981   -2.3660    0.0000 C   0  0  0  0  0  0  0  0  0  0  0  0
    3.0981   -1.3660    0.0000 S   0  0  0  0  0  0  0  0  0  0  0  0
    1.6658   -0.5608   -0.5803 C   0  0  0  0  0  0  0  0  0  0  0  0
    1.7631    0.5527   -1.0803 O   0  0  0  0  0  0  0  0  0  0  0  0
    0.3424   -1.2893   -0.4192 C   0  0  0  0  0  0  0  0  0  0  0  0
   -0.8543   -0.3829   -0.5378 C   0  0  0  0  0  0  0  0  0  0  0  0
   -2.0217   -0.5407    0.4067 C   0  0  0  0  0  0  0  0  0  0  0  0
   -1.1328    0.6680    0.5107 C   0  0  0  0  0  0  0  0  0  0  0  0
    2.6488   -2.5470    0.9969 H   0  0  0  0  0  0  0  0  0  0  0  0
    4.1878   -2.5370    0.0887 H   0  0  0  0  0  0  0  0  0  0  0  0
    3.0981   -3.4360    0.0000 H   0  0  0  0  0  0  0  0  0  0  0  0
    0.2863   -2.0508   -1.2071 H   0  0  0  0  0  0  0  0  0  0  0  0
    0.3245   -1.7985    0.5488 H   0  0  0  0  0  0  0  0  0  0  0  0
   -1.0567   -0.1108   -1.5667 H   0  0  0  0  0  0  0  0  0  0  0  0
   -1.9650   -1.2706    1.2054 H   0  0  0  0  0  0  0  0  0  0  0  0
   -3.0212   -0.3975    0.0091 H   0  0  0  0  0  0  0  0  0  0  0  0
   -0.4670    0.7464    1.3619 H   0  0  0  0  0  0  0  0  0  0  0  0
   -1.5243    1.6213    0.1726 H   0  0  0  0  0  0  0  0  0  0  0  0
  1  2  1  0  0  0  0
  1  9  1  0  0  0  0
  1 10  1  0  0  0  0
  1 11  1  0  0  0  0
  2  3  1  0  0  0  0
  3  4  2  0  0  0  0
  3  5  1  0  0  0  0
  5  6  1  0  0  0  0
  5 12  1  0  0  0  0
  5 13  1  0  0  0  0
  6  8  1  0  0  0  0
  6  7  1  0  0  0  0
  6 14  1  0  0  0  0
  7  8  1  0  0  0  0
  7 15  1  0  0  0  0
  7 16  1  0  0  0  0
  8 17  1  0  0  0  0
  8 18  1  0  0  0  0
M  END
$$$$
