
 OpenBabel03202621282D

 17 19  0  0  1  0  0  0  0  0999 V2000
    1.6636   -0.0000    0.0000 O   0  0  0  0  0  0  0  0  0  0  0  0
    0.8318   -0.4802    0.0000 C   0  0  0  0  0  0  0  0  0  0  0  0
    0.8318   -1.4407    0.0000 C   0  0  0  0  0  0  0  0  0  0  0  0
   -0.0000   -1.9210    0.0000 C   0  0  0  0  0  0  0  0  0  0  0  0
   -0.8318   -1.4407    0.0000 O   0  0  0  0  0  0  0  0  0  0  0  0
   -0.8318   -0.4802    0.0000 C   0  0  0  0  0  0  0  0  0  0  0  0
   -0.0000   -0.0000    0.0000 C   0  0  0  0  0  0  0  0  0  0  0  0
    0.0000    0.9605    0.0000 O   0  0  0  0  0  0  0  0  0  0  0  0
   -0.9135    1.2573    0.0000 C   0  0  0  0  0  0  0  0  0  0  0  0
   -1.1132    2.1968    0.0000 O   0  0  0  0  0  0  0  0  0  0  0  0
   -1.7453    0.7770    0.0000 C   0  0  1  0  0  0  0  0  0  0  0  0
   -1.7453   -0.1834    0.0000 N   0  0  0  0  0  0  0  0  0  0  0  0
   -2.5772   -0.6638    0.0000 C   0  0  2  0  0  0  0  0  0  0  0  0
   -3.4092   -0.1834    0.0000 C   0  0  0  0  0  0  0  0  0  0  0  0
   -3.4092    0.7770    0.0000 C   0  0  0  0  0  0  0  0  0  0  0  0
   -2.5772    1.2574    0.0000 C   0  0  2  0  0  0  0  0  0  0  0  0
   -2.9990    0.2969    0.0000 C   0  0  0  0  0  0  0  0  0  0  0  0
  1  2  2  0  0  0  0
  2  7  1  0  0  0  0
  2  3  1  0  0  0  0
  3  4  1  0  0  0  0
  4  5  1  0  0  0  0
  5  6  1  0  0  0  0
  6  7  2  0  0  0  0
  7  8  1  0  0  0  0
  8  9  1  0  0  0  0
  9 10  2  0  0  0  0
 11  9  1  1  0  0  0
 11 12  1  0  0  0  0
 11 16  1  0  0  0  0
 12 13  1  0  0  0  0
 13 14  1  6  0  0  0
 13 17  1  0  0  0  0
 14 15  1  0  0  0  0
 16 15  1  1  0  0  0
 16 17  1  0  0  0  0
M  END
$$$$
