
 OpenBabel03202621352D

 24 25  0  0  0  0  0  0  0  0999 V2000
   -0.0933   -1.7796    0.0000 C   0  0  0  0  0  0  0  0  0  0  0  0
   -0.5000   -0.8660    0.0000 C   0  0  0  0  0  0  0  0  0  0  0  0
   -1.5984   -0.3820    0.7000 C   0  0  0  0  0  0  0  0  0  0  0  0
   -1.9801    0.7551    0.0419 N   0  0  0  0  0  0  0  0  0  0  0  0
   -3.2087    1.5250    0.1599 C   0  0  0  0  0  0  0  0  0  0  0  0
   -4.5017    0.7500    0.0047 C   0  0  0  0  0  0  0  0  0  0  0  0
   -4.6089   -0.5818   -0.4281 C   0  0  0  0  0  0  0  0  0  0  0  0
   -5.8574   -1.2023   -0.4939 C   0  0  0  0  0  0  0  0  0  0  0  0
   -5.9314   -2.4870   -0.8641 F   0  0  0  0  0  0  0  0  0  0  0  0
   -7.0240   -0.5174   -0.1784 C   0  0  0  0  0  0  0  0  0  0  0  0
   -6.9404    0.8188    0.2038 C   0  0  0  0  0  0  0  0  0  0  0  0
   -5.6929    1.4321    0.2918 C   0  0  0  0  0  0  0  0  0  0  0  0
   -5.6386    2.7188    0.6638 F   0  0  0  0  0  0  0  0  0  0  0  0
   -1.0418    1.1258   -0.8366 N   0  0  0  0  0  0  0  0  0  0  0  0
   -0.1455    0.1546   -0.8826 N   0  0  0  0  0  0  0  0  0  0  0  0
   -0.3329   -2.0950   -1.0437 H   0  0  0  0  0  0  0  0  0  0  0  0
    0.9846   -1.5088    0.0966 H   0  0  0  0  0  0  0  0  0  0  0  0
    0.3419   -2.7571    0.0000 H   0  0  0  0  0  0  0  0  0  0  0  0
   -2.2144   -0.8256    1.4700 H   0  0  0  0  0  0  0  0  0  0  0  0
   -3.1777    2.3071   -0.6112 H   0  0  0  0  0  0  0  0  0  0  0  0
   -3.1683    2.0021    1.1456 H   0  0  0  0  0  0  0  0  0  0  0  0
   -3.7449   -1.1699   -0.7184 H   0  0  0  0  0  0  0  0  0  0  0  0
   -7.9829   -1.0234   -0.2400 H   0  0  0  0  0  0  0  0  0  0  0  0
   -7.8389    1.3855    0.4363 H   0  0  0  0  0  0  0  0  0  0  0  0
  1  2  1  0  0  0  0
  1 16  1  0  0  0  0
  1 17  1  0  0  0  0
  1 18  1  0  0  0  0
  2 15  1  0  0  0  0
  2  3  2  0  0  0  0
  3  4  1  0  0  0  0
  3 19  1  0  0  0  0
  4  5  1  0  0  0  0
  4 14  1  0  0  0  0
  5  6  1  0  0  0  0
  5 20  1  0  0  0  0
  5 21  1  0  0  0  0
  6 12  2  0  0  0  0
  6  7  1  0  0  0  0
  7  8  2  0  0  0  0
  7 22  1  0  0  0  0
  8  9  1  0  0  0  0
  8 10  1  0  0  0  0
 10 11  2  0  0  0  0
 10 23  1  0  0  0  0
 11 12  1  0  0  0  0
 11 24  1  0  0  0  0
 12 13  1  0  0  0  0
 14 15  2  0  0  0  0
M  END
$$$$
