
 OpenBabel03202621332D

 37 37  0  0  1  0  0  0  0  0999 V2000
    0.8090    1.5878    0.0000 C   0  0  0  0  0  0  0  0  0  0  0  0
    0.8090    0.5878    0.0000 C   0  0  0  0  0  0  0  0  0  0  0  0
    0.6112   -0.4783    0.8942 C   0  0  0  0  0  0  0  0  0  0  0  0
    0.2475   -1.5542    0.0923 N   0  0  0  0  0  0  0  0  0  0  0  0
    0.9188   -2.8416   -0.0938 C   0  0  0  0  0  0  0  0  0  0  0  0
    2.4343   -2.8700    0.1575 C   0  0  1  0  0  0  0  0  0  0  0  0
    3.1853   -3.5958   -0.8748 N   0  0  0  0  0  0  0  0  0  0  0  0
    4.4962   -3.3318   -1.1680 C   0  0  0  0  0  0  0  0  0  0  0  0
    5.2759   -4.1935   -1.5350 O   0  0  0  0  0  0  0  0  0  0  0  0
    4.8166   -2.0040   -1.0070 O   0  0  0  0  0  0  0  0  0  0  0  0
    5.8749   -1.3420    0.0000 C   0  0  0  0  0  0  0  0  0  0  0  0
    7.0173   -0.8609   -1.3364 C   0  0  0  0  0  0  0  0  0  0  0  0
    5.7704   -0.3474    0.0000 C   0  0  0  0  0  0  0  0  0  0  0  0
    6.4627   -2.1510    0.0000 C   0  0  0  0  0  0  0  0  0  0  0  0
    2.9039   -1.4375    0.2185 C   0  0  0  0  0  0  0  0  0  0  0  0
    3.2575   -0.8576    1.2341 O   0  0  0  0  0  0  0  0  0  0  0  0
    2.7736   -0.8528   -1.0102 O   0  0  0  0  0  0  0  0  0  0  0  0
   -0.3147   -1.0637   -1.0177 N   0  0  0  0  0  0  0  0  0  0  0  0
    0.2285    0.1225   -1.1941 N   0  0  0  0  0  0  0  0  0  0  0  0
    1.8152    1.7554    0.4479 H   0  0  0  0  0  0  0  0  0  0  0  0
    0.0237    1.7895    0.7688 H   0  0  0  0  0  0  0  0  0  0  0  0
    0.8090    2.6578    0.0000 H   0  0  0  0  0  0  0  0  0  0  0  0
    0.8034   -0.5767    1.9558 H   0  0  0  0  0  0  0  0  0  0  0  0
    0.3757   -3.5957    0.4779 H   0  0  0  0  0  0  0  0  0  0  0  0
    0.7615   -3.0952   -1.1569 H   0  0  0  0  0  0  0  0  0  0  0  0
    2.6574   -3.3481    1.1207 H   0  0  0  0  0  0  0  0  0  0  0  0
    2.9949   -4.5941   -0.9852 H   0  0  0  0  0  0  0  0  0  0  0  0
    7.7540   -1.6434   -1.6100 H   0  0  0  0  0  0  0  0  0  0  0  0
    6.4725   -0.6065   -2.2557 H   0  0  0  0  0  0  0  0  0  0  0  0
    7.6560   -0.0036   -1.0232 H   0  0  0  0  0  0  0  0  0  0  0  0
    5.7847   -0.1722    1.1048 H   0  0  0  0  0  0  0  0  0  0  0  0
    4.7698   -0.1419   -0.3793 H   0  0  0  0  0  0  0  0  0  0  0  0
    5.6586    0.7167    0.0000 H   0  0  0  0  0  0  0  0  0  0  0  0
    5.8765   -2.7810    0.7301 H   0  0  0  0  0  0  0  0  0  0  0  0
    7.2793   -1.8121    0.7129 H   0  0  0  0  0  0  0  0  0  0  0  0
    7.0916   -3.0166    0.0000 H   0  0  0  0  0  0  0  0  0  0  0  0
    3.0084    0.0927   -0.9579 H   0  0  0  0  0  0  0  0  0  0  0  0
  1  2  1  0  0  0  0
  1 20  1  0  0  0  0
  1 21  1  0  0  0  0
  1 22  1  0  0  0  0
  2 19  1  0  0  0  0
  2  3  2  0  0  0  0
  3  4  1  0  0  0  0
  3 23  1  0  0  0  0
  4  5  1  0  0  0  0
  4 18  1  0  0  0  0
  5 24  1  0  0  0  0
  5 25  1  0  0  0  0
  6  5  1  0  0  0  0
  6  7  1  0  0  0  0
  6 15  1  0  0  0  0
  6 26  1  1  0  0  0
  7  8  1  0  0  0  0
  7 27  1  0  0  0  0
  8  9  2  0  0  0  0
  8 10  1  0  0  0  0
 10 11  1  0  0  0  0
 11 12  1  0  0  0  0
 11 13  1  0  0  0  0
 11 14  1  0  0  0  0
 12 28  1  0  0  0  0
 12 29  1  0  0  0  0
 12 30  1  0  0  0  0
 13 31  1  0  0  0  0
 13 32  1  0  0  0  0
 13 33  1  0  0  0  0
 14 34  1  0  0  0  0
 14 35  1  0  0  0  0
 14 36  1  0  0  0  0
 15 16  2  0  0  0  0
 15 17  1  0  0  0  0
 17 37  1  0  0  0  0
 18 19  2  0  0  0  0
M  END
$$$$
