
 OpenBabel03202621402D

 18 17  0  0  0  0  0  0  0  0999 V2000
    3.4641    0.0000    0.0000 C   0  0  0  0  0  0  0  0  0  0  0  0
    3.4641    1.0000    0.0000 S   0  0  0  0  0  0  0  0  0  0  0  0
    2.6141    1.3686   -1.5134 C   0  0  0  0  0  0  0  0  0  0  0  0
    3.1061    1.9031   -2.4914 O   0  0  0  0  0  0  0  0  0  0  0  0
    1.2038    0.9066   -1.3137 C   0  0  0  0  0  0  0  0  0  0  0  0
    0.8660    1.5000    0.0000 N   0  0  0  0  0  0  0  0  0  0  0  0
    0.8660    2.5000    0.0000 C   0  0  0  0  0  0  0  0  0  0  0  0
   -0.2512    0.7970    0.5429 N   0  3  0  0  0  0  0  0  0  0  0  0
   -1.2541    1.4418    0.8527 O   0  0  0  0  0  0  0  0  0  0  0  0
   -0.1084   -0.4301    0.6432 O   0  5  0  0  0  0  0  0  0  0  0  0
    4.0299   -0.2277   -0.9337 H   0  0  0  0  0  0  0  0  0  0  0  0
    4.2033   -0.1648    0.8091 H   0  0  0  0  0  0  0  0  0  0  0  0
    3.4641   -1.0700    0.0000 H   0  0  0  0  0  0  0  0  0  0  0  0
    1.2126   -0.1906   -1.3078 H   0  0  0  0  0  0  0  0  0  0  0  0
    0.5493    1.2103   -2.1392 H   0  0  0  0  0  0  0  0  0  0  0  0
    0.8393    2.7341    1.0884 H   0  0  0  0  0  0  0  0  0  0  0  0
   -0.0502    2.7798   -0.5779 H   0  0  0  0  0  0  0  0  0  0  0  0
    0.8660    3.5700    0.0000 H   0  0  0  0  0  0  0  0  0  0  0  0
  1  2  1  0  0  0  0
  1 11  1  0  0  0  0
  1 12  1  0  0  0  0
  1 13  1  0  0  0  0
  2  3  1  0  0  0  0
  3  4  2  0  0  0  0
  3  5  1  0  0  0  0
  5  6  1  0  0  0  0
  5 14  1  0  0  0  0
  5 15  1  0  0  0  0
  6  7  1  0  0  0  0
  6  8  1  0  0  0  0
  7 16  1  0  0  0  0
  7 17  1  0  0  0  0
  7 18  1  0  0  0  0
  8  9  2  0  0  0  0
  8 10  1  0  0  0  0
M  CHG  2   8   1  10  -1
M  END
$$$$
