
 OpenBabel03202621352D

 22 23  0  0  1  0  0  0  0  0999 V2000
    1.6832   -3.0413    0.0000 C   0  0  0  0  0  0  0  0  0  0  0  0
    0.8295   -2.5205    0.0000 S   0  0  0  0  0  0  0  0  0  0  0  0
    0.9630   -1.6846   -1.6550 C   0  0  0  0  0  0  0  0  0  0  0  0
    1.6782   -2.0200   -2.5805 O   0  0  0  0  0  0  0  0  0  0  0  0
    0.0081   -0.6249   -1.4383 C   0  0  3  0  0  0  0  0  0  0  0  0
    0.0000    0.0000    0.0000 C   0  0  0  0  0  0  0  0  0  0  0  0
   -1.0000    0.0000    0.0000 C   0  0  3  0  0  0  0  0  0  0  0  0
   -2.0000    0.0000    0.0000 C   0  0  0  0  0  0  0  0  0  0  0  0
   -0.8326    0.5624   -1.8227 C   0  0  0  0  0  0  0  0  0  0  0  0
   -1.3028   -1.2716   -0.9548 C   0  0  0  0  0  0  0  0  0  0  0  0
    1.5272   -3.7499   -0.8354 H   0  0  0  0  0  0  0  0  0  0  0  0
    2.4530   -2.2518   -0.1012 H   0  0  0  0  0  0  0  0  0  0  0  0
    2.5966   -3.5985    0.0000 H   0  0  0  0  0  0  0  0  0  0  0  0
    0.4695   -0.4010    0.9088 H   0  0  0  0  0  0  0  0  0  0  0  0
    0.5043    0.9894    0.0213 H   0  0  0  0  0  0  0  0  0  0  0  0
   -2.2059   -0.3865    1.0379 H   0  0  0  0  0  0  0  0  0  0  0  0
   -2.2123    1.1002    0.0840 H   0  0  0  0  0  0  0  0  0  0  0  0
   -3.0700    0.0000    0.0000 H   0  0  0  0  0  0  0  0  0  0  0  0
   -1.6696    0.4587   -2.5206 H   0  0  0  0  0  0  0  0  0  0  0  0
   -0.3110    1.5133   -1.9775 H   0  0  0  0  0  0  0  0  0  0  0  0
   -2.0924   -1.3384   -1.7378 H   0  0  0  0  0  0  0  0  0  0  0  0
   -1.4491   -2.2367   -0.4409 H   0  0  0  0  0  0  0  0  0  0  0  0
  1  2  1  0  0  0  0
  1 11  1  0  0  0  0
  1 12  1  0  0  0  0
  1 13  1  0  0  0  0
  2  3  1  0  0  0  0
  3  4  2  0  0  0  0
  3  5  1  0  0  0  0
  5  9  1  0  0  0  0
  5 10  1  0  0  0  0
  5  6  1  0  0  0  0
  6  7  1  0  0  0  0
  6 14  1  0  0  0  0
  6 15  1  0  0  0  0
  7  8  1  0  0  0  0
  7  9  1  0  0  0  0
  7 10  1  0  0  0  0
  8 16  1  0  0  0  0
  8 17  1  0  0  0  0
  8 18  1  0  0  0  0
  9 19  1  0  0  0  0
  9 20  1  0  0  0  0
 10 21  1  0  0  0  0
 10 22  1  0  0  0  0
M  END
$$$$
