
 OpenBabel03202621402D

 30 30  0  0  1  0  0  0  0  0999 V2000
    5.2813    1.3522   -0.2286 N   0  0  0  0  0  0  0  0  0  0  0  0
    4.4112    2.3002   -0.3360 C   0  0  0  0  0  0  0  0  0  0  0  0
    4.8674    3.5623   -0.5514 N   0  0  0  0  0  0  0  0  0  0  0  0
    2.9132    2.1079   -0.1946 C   0  0  0  0  0  0  0  0  0  0  0  0
    2.3930    0.6718   -0.1221 C   0  0  0  0  0  0  0  0  0  0  0  0
    0.8549    0.6886   -0.1046 C   0  0  0  0  0  0  0  0  0  0  0  0
    0.1713   -0.6192    0.3581 C   0  0  3  0  0  0  0  0  0  0  0  0
    0.5760   -0.8650    1.7105 O   0  0  0  0  0  0  0  0  0  0  0  0
    0.5284   -1.8026   -0.5557 C   0  0  0  0  0  0  0  0  0  0  0  0
   -0.4950   -2.9244   -0.3888 C   0  0  0  0  0  0  0  0  0  0  0  0
   -1.8182   -2.4975   -0.7368 O   0  0  0  0  0  0  0  0  0  0  0  0
   -2.1786   -1.3172   -0.1423 C   0  0  0  0  0  0  0  0  0  0  0  0
   -1.3328   -0.4431    0.4147 C   0  0  0  0  0  0  0  0  0  0  0  0
   -1.8268    0.6462    1.1097 O   0  0  0  0  0  0  0  0  0  0  0  0
    4.8419    0.4461   -0.0613 H   0  0  0  0  0  0  0  0  0  0  0  0
    5.8649    3.6494   -0.3784 H   0  0  0  0  0  0  0  0  0  0  0  0
    4.3187    4.3302   -0.1845 H   0  0  0  0  0  0  0  0  0  0  0  0
    2.6145    2.6454    0.7151 H   0  0  0  0  0  0  0  0  0  0  0  0
    2.4413    2.6265   -1.0399 H   0  0  0  0  0  0  0  0  0  0  0  0
    2.7867    0.1920    0.7813 H   0  0  0  0  0  0  0  0  0  0  0  0
    2.7504    0.0908   -0.9803 H   0  0  0  0  0  0  0  0  0  0  0  0
    0.4942    0.9652   -1.1040 H   0  0  0  0  0  0  0  0  0  0  0  0
    0.5520    1.4988    0.5713 H   0  0  0  0  0  0  0  0  0  0  0  0
    1.4132   -1.3582    1.6943 H   0  0  0  0  0  0  0  0  0  0  0  0
    0.5080   -1.4789   -1.6049 H   0  0  0  0  0  0  0  0  0  0  0  0
    1.5287   -2.1908   -0.3373 H   0  0  0  0  0  0  0  0  0  0  0  0
   -0.5005   -3.3120    0.6381 H   0  0  0  0  0  0  0  0  0  0  0  0
   -0.2410   -3.7600   -1.0487 H   0  0  0  0  0  0  0  0  0  0  0  0
   -3.2517   -1.1803   -0.1566 H   0  0  0  0  0  0  0  0  0  0  0  0
   -1.1577    0.8468    1.7934 H   0  0  0  0  0  0  0  0  0  0  0  0
  1  2  2  0  0  0  0
  1 15  1  0  0  0  0
  2  3  1  0  0  0  0
  2  4  1  0  0  0  0
  3 16  1  0  0  0  0
  3 17  1  0  0  0  0
  4  5  1  0  0  0  0
  4 18  1  0  0  0  0
  4 19  1  0  0  0  0
  5  6  1  0  0  0  0
  5 20  1  0  0  0  0
  5 21  1  0  0  0  0
  6  7  1  0  0  0  0
  6 22  1  0  0  0  0
  6 23  1  0  0  0  0
  7 13  1  0  0  0  0
  7  8  1  0  0  0  0
  7  9  1  0  0  0  0
  8 24  1  0  0  0  0
  9 10  1  0  0  0  0
  9 25  1  0  0  0  0
  9 26  1  0  0  0  0
 10 11  1  0  0  0  0
 10 27  1  0  0  0  0
 10 28  1  0  0  0  0
 11 12  1  0  0  0  0
 12 13  2  0  0  0  0
 12 29  1  0  0  0  0
 13 14  1  0  0  0  0
 14 30  1  0  0  0  0
M  END
$$$$
