
 OpenBabel03202621282D

 17 18  0  0  1  0  0  0  0  0999 V2000
    5.2812   -4.8090    0.0000 C   0  0  0  0  0  0  0  0  0  0  0  0
    4.4152   -4.3090    0.0000 S   0  0  0  0  0  0  0  0  0  0  0  0
    4.4152   -3.3090    0.0000 C   0  0  0  0  0  0  0  0  0  0  0  0
    5.2812   -2.8090    0.0000 C   0  0  2  0  0  0  0  0  0  0  0  0
    6.1472   -3.3090    0.0000 O   0  0  0  0  0  0  0  0  0  0  0  0
    5.2812   -1.8090    0.0000 C   0  0  0  0  0  0  0  0  0  0  0  0
    4.4152   -1.3090    0.0000 O   0  0  0  0  0  0  0  0  0  0  0  0
    3.5491   -1.8090    0.0000 C   0  0  0  0  0  0  0  0  0  0  0  0
    2.6831   -1.3090    0.0000 C   0  0  0  0  0  0  0  0  0  0  0  0
    2.6831   -0.3090    0.0000 C   0  0  0  0  0  0  0  0  0  0  0  0
    1.8171    0.1910    0.0000 C   0  0  0  0  0  0  0  0  0  0  0  0
    0.9511   -0.3090    0.0000 C   0  0  0  0  0  0  0  0  0  0  0  0
    0.9511   -1.3090    0.0000 C   0  0  0  0  0  0  0  0  0  0  0  0
    1.8171   -1.8090    0.0000 C   0  0  0  0  0  0  0  0  0  0  0  0
    0.0000   -1.6180    0.0000 O   0  0  0  0  0  0  0  0  0  0  0  0
   -0.5878   -0.8090    0.0000 C   0  0  0  0  0  0  0  0  0  0  0  0
    0.0000   -0.0000    0.0000 O   0  0  0  0  0  0  0  0  0  0  0  0
  1  2  1  0  0  0  0
  2  3  1  0  0  0  0
  3  4  1  0  0  0  0
  4  5  1  1  0  0  0
  4  6  1  0  0  0  0
  6  7  1  0  0  0  0
  7  8  1  0  0  0  0
  8  9  1  0  0  0  0
  9 14  2  0  0  0  0
  9 10  1  0  0  0  0
 10 11  2  0  0  0  0
 11 12  1  0  0  0  0
 12 17  1  0  0  0  0
 12 13  2  0  0  0  0
 13 14  1  0  0  0  0
 13 15  1  0  0  0  0
 15 16  1  0  0  0  0
 16 17  1  0  0  0  0
M  END
$$$$
