
 OpenBabel03202621342D

 33 34  0  0  1  0  0  0  0  0999 V2000
   -1.5878   -0.8090    0.0000 C   0  0  0  0  0  0  0  0  0  0  0  0
   -1.0000    0.0000    0.0000 C   0  0  2  0  0  0  0  0  0  0  0  0
   -1.2236    1.2566   -0.8950 C   0  0  0  0  0  0  0  0  0  0  0  0
   -0.1293    2.2321   -0.4528 C   0  0  1  0  0  0  0  0  0  0  0  0
   -0.3132    3.2999    0.6727 C   0  0  0  0  0  0  0  0  0  0  0  0
    0.6946    3.7447    1.2542 O   0  0  0  0  0  0  0  0  0  0  0  0
   -1.5261    3.8132    1.0055 O   0  0  0  0  0  0  0  0  0  0  0  0
   -2.8151    3.3661    0.6282 C   0  0  0  0  0  0  0  0  0  0  0  0
   -3.3665    2.2831    1.2029 C   0  0  0  0  0  0  0  0  0  0  0  0
   -4.6892    1.7995    0.7112 C   0  0  0  0  0  0  0  0  0  0  0  0
   -5.5622    2.8356    0.2421 O   0  0  0  0  0  0  0  0  0  0  0  0
   -4.9074    3.8569   -0.4008 C   0  0  0  0  0  0  0  0  0  0  0  0
   -3.5966    4.1511   -0.3273 C   0  0  0  0  0  0  0  0  0  0  0  0
   -2.9210    5.0230   -0.9387 O   0  5  0  0  0  0  0  0  0  0  0  0
    0.9665    1.2830   -0.0031 N   0  0  0  0  0  0  0  0  0  0  0  0
    0.5325   -0.0874   -0.2907 C   0  0  2  0  0  0  0  0  0  0  0  0
    1.3069   -1.1324    0.4973 C   0  0  0  0  0  0  0  0  0  0  0  0
   -2.5959   -0.3384   -0.0551 H   0  0  0  0  0  0  0  0  0  0  0  0
   -1.3439   -1.2341   -1.0029 H   0  0  0  0  0  0  0  0  0  0  0  0
   -2.2167   -1.6746    0.0000 H   0  0  0  0  0  0  0  0  0  0  0  0
   -1.0195    0.3975    1.0333 H   0  0  0  0  0  0  0  0  0  0  0  0
   -1.0454    0.9854   -1.9513 H   0  0  0  0  0  0  0  0  0  0  0  0
   -2.2344    1.6457   -0.9017 H   0  0  0  0  0  0  0  0  0  0  0  0
    0.2195    2.7858   -1.3324 H   0  0  0  0  0  0  0  0  0  0  0  0
   -2.8207    1.7034    1.9309 H   0  0  0  0  0  0  0  0  0  0  0  0
   -4.5417    1.0853   -0.1071 H   0  0  0  0  0  0  0  0  0  0  0  0
   -5.2094    1.2668    1.5081 H   0  0  0  0  0  0  0  0  0  0  0  0
   -5.6065    4.4443   -0.9963 H   0  0  0  0  0  0  0  0  0  0  0  0
    1.8527    1.5415   -0.4200 H   0  0  0  0  0  0  0  0  0  0  0  0
    0.7150   -0.2877   -1.3590 H   0  0  0  0  0  0  0  0  0  0  0  0
    0.9906   -2.1375    0.2029 H   0  0  0  0  0  0  0  0  0  0  0  0
    2.3813   -1.0557    0.2841 H   0  0  0  0  0  0  0  0  0  0  0  0
    1.1632   -1.0277    1.5763 H   0  0  0  0  0  0  0  0  0  0  0  0
  1 18  1  0  0  0  0
  1 19  1  0  0  0  0
  1 20  1  0  0  0  0
  2  1  1  0  0  0  0
  2  3  1  0  0  0  0
  2 16  1  0  0  0  0
  2 21  1  1  0  0  0
  3  4  1  0  0  0  0
  3 22  1  0  0  0  0
  3 23  1  0  0  0  0
  4  5  1  0  0  0  0
  4 15  1  0  0  0  0
  4 24  1  6  0  0  0
  5  6  2  0  0  0  0
  5  7  1  0  0  0  0
  7  8  1  0  0  0  0
  8 13  1  0  0  0  0
  8  9  2  0  0  0  0
  9 10  1  0  0  0  0
  9 25  1  0  0  0  0
 10 11  1  0  0  0  0
 10 26  1  0  0  0  0
 10 27  1  0  0  0  0
 11 12  1  0  0  0  0
 12 13  2  0  0  0  0
 12 28  1  0  0  0  0
 13 14  1  0  0  0  0
 15 16  1  0  0  0  0
 15 29  1  0  0  0  0
 16 17  1  0  0  0  0
 16 30  1  1  0  0  0
 17 31  1  0  0  0  0
 17 32  1  0  0  0  0
 17 33  1  0  0  0  0
M  CHG  1  14  -1
M  END
$$$$
