
 OpenBabel03202621292D

 16 15  0  0  1  0  0  0  0  0999 V2000
    0.0000   -3.0000    0.0000 C   0  0  0  0  0  0  0  0  0  0  0  0
    0.8660   -2.5000    0.0000 S   0  0  0  0  0  0  0  0  0  0  0  0
    0.5750   -0.7115   -0.4226 C   0  0  1  0  0  0  0  0  0  0  0  0
    1.8853    0.0170   -0.1180 C   0  0  2  0  0  0  0  0  0  0  0  0
    2.9975   -0.5894   -0.7654 O   0  0  0  0  0  0  0  0  0  0  0  0
    1.8314    1.2820   -0.6092 F   0  0  0  0  0  0  0  0  0  0  0  0
   -0.5359   -0.0083    0.3339 C   0  0  0  0  0  0  0  0  0  0  0  0
   -1.7321   -0.5908    0.0850 F   0  0  0  0  0  0  0  0  0  0  0  0
   -0.3351   -0.0533    1.6701 F   0  0  0  0  0  0  0  0  0  0  0  0
   -0.6509    1.2897   -0.0181 F   0  0  0  0  0  0  0  0  0  0  0  0
   -0.0992   -3.1894   -1.0875 H   0  0  0  0  0  0  0  0  0  0  0  0
    0.3454   -3.9393    0.4717 H   0  0  0  0  0  0  0  0  0  0  0  0
   -0.9266   -3.5350    0.0000 H   0  0  0  0  0  0  0  0  0  0  0  0
    0.3770   -0.6578   -1.5011 H   0  0  0  0  0  0  0  0  0  0  0  0
    2.1000    0.0784    0.9563 H   0  0  0  0  0  0  0  0  0  0  0  0
    2.9813   -1.5306   -0.5075 H   0  0  0  0  0  0  0  0  0  0  0  0
  1  2  1  0  0  0  0
  1 11  1  0  0  0  0
  1 12  1  0  0  0  0
  1 13  1  0  0  0  0
  3  2  1  0  0  0  0
  3  4  1  0  0  0  0
  3  7  1  0  0  0  0
  3 14  1  1  0  0  0
  4  5  1  0  0  0  0
  4  6  1  0  0  0  0
  4 15  1  6  0  0  0
  5 16  1  0  0  0  0
  7  8  1  0  0  0  0
  7  9  1  0  0  0  0
  7 10  1  0  0  0  0
M  END
$$$$
