
 OpenBabel03202621372D

 24 25  0  0  0  0  0  0  0  0999 V2000
    1.4945   -0.9706    0.0000 C   0  0  0  0  0  0  0  0  0  0  0  0
    0.5000   -0.8660    0.0000 C   0  0  0  0  0  0  0  0  0  0  0  0
   -0.1132   -2.0873    0.0942 C   0  0  0  0  0  0  0  0  0  0  0  0
   -0.9629   -1.9370    1.1561 N   0  0  0  0  0  0  0  0  0  0  0  0
   -2.2298   -2.2347    0.7409 C   0  0  0  0  0  0  0  0  0  0  0  0
   -2.5469   -3.6329    0.8085 C   0  0  0  0  0  0  0  0  0  0  0  0
   -3.6507   -4.1262    0.1593 C   0  0  0  0  0  0  0  0  0  0  0  0
   -4.4199   -3.2179   -0.5135 C   0  0  0  0  0  0  0  0  0  0  0  0
   -4.0373   -1.8453   -0.5485 C   0  0  0  0  0  0  0  0  0  0  0  0
   -5.3757   -0.8724   -1.2335 Cl  0  0  0  0  0  0  0  0  0  0  0  0
   -2.8147   -1.2024    0.0000 C   0  0  0  0  0  0  0  0  0  0  0  0
   -2.8147   -0.2024    0.0000 C   0  0  0  0  0  0  0  0  0  0  0  0
   -0.7389   -0.7615    1.7974 N   0  0  0  0  0  0  0  0  0  0  0  0
   -0.0674   -0.0056    0.9385 N   0  0  0  0  0  0  0  0  0  0  0  0
    1.7794   -0.8889    1.0854 H   0  0  0  0  0  0  0  0  0  0  0  0
    1.7655   -0.0312   -0.5379 H   0  0  0  0  0  0  0  0  0  0  0  0
    2.5586   -1.0825    0.0000 H   0  0  0  0  0  0  0  0  0  0  0  0
    0.0675   -3.0565   -0.3574 H   0  0  0  0  0  0  0  0  0  0  0  0
   -1.8974   -4.3214    1.3493 H   0  0  0  0  0  0  0  0  0  0  0  0
   -3.9140   -5.1788    0.1949 H   0  0  0  0  0  0  0  0  0  0  0  0
   -5.3484   -3.5419   -0.9784 H   0  0  0  0  0  0  0  0  0  0  0  0
   -1.7782   -0.0064   -0.3039 H   0  0  0  0  0  0  0  0  0  0  0  0
   -3.1840    0.0473   -1.0272 H   0  0  0  0  0  0  0  0  0  0  0  0
   -2.8147    0.8676    0.0000 H   0  0  0  0  0  0  0  0  0  0  0  0
  1  2  1  0  0  0  0
  1 15  1  0  0  0  0
  1 16  1  0  0  0  0
  1 17  1  0  0  0  0
  2 14  1  0  0  0  0
  2  3  2  0  0  0  0
  3  4  1  0  0  0  0
  3 18  1  0  0  0  0
  4  5  1  0  0  0  0
  4 13  1  0  0  0  0
  5 11  2  0  0  0  0
  5  6  1  0  0  0  0
  6  7  2  0  0  0  0
  6 19  1  0  0  0  0
  7  8  1  0  0  0  0
  7 20  1  0  0  0  0
  8  9  2  0  0  0  0
  8 21  1  0  0  0  0
  9 10  1  0  0  0  0
  9 11  1  0  0  0  0
 11 12  1  0  0  0  0
 12 22  1  0  0  0  0
 12 23  1  0  0  0  0
 12 24  1  0  0  0  0
 13 14  2  0  0  0  0
M  END
$$$$
