
 OpenBabel03202621322D

 42 44  0  0  1  0  0  0  0  0999 V2000
    1.7321    0.0000    0.0000 C   0  0  0  0  0  0  0  0  0  0  0  0
    0.8660   -0.5000    0.0000 C   0  0  0  0  0  0  0  0  0  0  0  0
    0.6311   -1.8315   -0.0750 C   0  0  0  0  0  0  0  0  0  0  0  0
   -0.6899   -2.4758   -0.1437 C   0  0  0  0  0  0  0  0  0  0  0  0
   -0.7784   -3.6959   -0.1627 O   0  0  0  0  0  0  0  0  0  0  0  0
   -1.7854   -1.6426   -0.2153 O   0  0  0  0  0  0  0  0  0  0  0  0
   -1.6253   -0.2495   -0.1283 C   0  0  0  0  0  0  0  0  0  0  0  0
   -2.7970    0.5060   -0.2037 C   0  0  0  0  0  0  0  0  0  0  0  0
   -2.7305    1.8978   -0.1085 C   0  0  0  0  0  0  0  0  0  0  0  0
   -3.7941    2.7556   -0.1942 O   0  0  0  0  0  0  0  0  0  0  0  0
   -5.0876    2.1217   -0.1585 C   0  0  0  0  0  0  0  0  0  0  0  0
   -6.1533    3.2176   -0.0637 C   0  0  2  0  0  0  0  0  0  0  0  0
   -5.8098    4.1423    0.9868 O   0  0  0  0  0  0  0  0  0  0  0  0
   -7.5183    2.5997    0.2180 C   0  0  0  0  0  0  0  0  0  0  0  0
   -8.0283    2.0183   -0.9845 O   0  0  0  0  0  0  0  0  0  0  0  0
   -8.9391    1.0258   -0.6543 C   0  0  0  0  0  0  0  0  0  0  0  0
  -10.2252    1.3377   -0.4581 C   0  0  0  0  0  0  0  0  0  0  0  0
  -11.2273    0.3114   -0.0604 C   0  0  0  0  0  0  0  0  0  0  0  0
  -10.7524   -1.0272    0.1090 O   0  0  0  0  0  0  0  0  0  0  0  0
   -9.4303   -1.2594   -0.1579 C   0  0  0  0  0  0  0  0  0  0  0  0
   -8.4909   -0.3659   -0.5271 C   0  0  0  0  0  0  0  0  0  0  0  0
   -7.2659   -0.5470   -0.7702 O   0  5  0  0  0  0  0  0  0  0  0  0
   -1.4939    2.5097    0.0788 C   0  0  0  0  0  0  0  0  0  0  0  0
   -0.3283    1.7428    0.1463 C   0  0  0  0  0  0  0  0  0  0  0  0
   -0.3707    0.3374    0.0226 C   0  0  0  0  0  0  0  0  0  0  0  0
    2.2749   -0.5427    0.8120 H   0  0  0  0  0  0  0  0  0  0  0  0
    2.1044   -0.2755   -1.0172 H   0  0  0  0  0  0  0  0  0  0  0  0
    2.6588    0.5350    0.0000 H   0  0  0  0  0  0  0  0  0  0  0  0
    1.4490   -2.5465   -0.1171 H   0  0  0  0  0  0  0  0  0  0  0  0
   -3.7381   -0.0168   -0.3512 H   0  0  0  0  0  0  0  0  0  0  0  0
   -5.1419    1.4883    0.7354 H   0  0  0  0  0  0  0  0  0  0  0  0
   -5.2358    1.5342   -1.0704 H   0  0  0  0  0  0  0  0  0  0  0  0
   -6.1678    3.7909   -0.9980 H   0  0  0  0  0  0  0  0  0  0  0  0
   -4.8532    4.2959    0.8709 H   0  0  0  0  0  0  0  0  0  0  0  0
   -7.4252    1.8690    1.0350 H   0  0  0  0  0  0  0  0  0  0  0  0
   -8.2166    3.3714    0.5614 H   0  0  0  0  0  0  0  0  0  0  0  0
  -10.5509    2.3631   -0.5675 H   0  0  0  0  0  0  0  0  0  0  0  0
  -11.6819    0.6147    0.8900 H   0  0  0  0  0  0  0  0  0  0  0  0
  -12.0287    0.2823   -0.8061 H   0  0  0  0  0  0  0  0  0  0  0  0
   -9.1971   -2.3079   -0.0283 H   0  0  0  0  0  0  0  0  0  0  0  0
   -1.4337    3.5935    0.1668 H   0  0  0  0  0  0  0  0  0  0  0  0
    0.6142    2.2674    0.2864 H   0  0  0  0  0  0  0  0  0  0  0  0
  1  2  1  0  0  0  0
  1 26  1  0  0  0  0
  1 27  1  0  0  0  0
  1 28  1  0  0  0  0
  2 25  1  0  0  0  0
  2  3  2  0  0  0  0
  3  4  1  0  0  0  0
  3 29  1  0  0  0  0
  4  5  2  0  0  0  0
  4  6  1  0  0  0  0
  6  7  1  0  0  0  0
  7 25  2  0  0  0  0
  7  8  1  0  0  0  0
  8  9  2  0  0  0  0
  8 30  1  0  0  0  0
  9 10  1  0  0  0  0
  9 23  1  0  0  0  0
 10 11  1  0  0  0  0
 11 12  1  0  0  0  0
 11 31  1  0  0  0  0
 11 32  1  0  0  0  0
 12 13  1  0  0  0  0
 12 14  1  0  0  0  0
 12 33  1  6  0  0  0
 13 34  1  0  0  0  0
 14 15  1  0  0  0  0
 14 35  1  0  0  0  0
 14 36  1  0  0  0  0
 15 16  1  0  0  0  0
 16 21  1  0  0  0  0
 16 17  2  0  0  0  0
 17 18  1  0  0  0  0
 17 37  1  0  0  0  0
 18 19  1  0  0  0  0
 18 38  1  0  0  0  0
 18 39  1  0  0  0  0
 19 20  1  0  0  0  0
 20 21  2  0  0  0  0
 20 40  1  0  0  0  0
 21 22  1  0  0  0  0
 23 24  2  0  0  0  0
 23 41  1  0  0  0  0
 24 25  1  0  0  0  0
 24 42  1  0  0  0  0
M  CHG  1  22  -1
M  END
$$$$
