
 OpenBabel03202621322D

 51 51  0  0  1  0  0  0  0  0999 V2000
    0.1340    1.5000    0.0000 C   0  0  0  0  0  0  0  0  0  0  0  0
    1.0000    1.0000    0.0000 C   0  0  0  0  0  0  0  0  0  0  0  0
    1.8660    1.5000    0.0000 C   0  0  0  0  0  0  0  0  0  0  0  0
    1.8660    2.5000    0.0000 C   0  0  2  0  0  0  0  0  0  0  0  0
    2.8660    2.5000    0.0000 O   0  0  0  0  0  0  0  0  0  0  0  0
    1.8660    3.5000    0.0000 C   0  0  0  0  0  0  0  0  0  0  0  0
    2.5784    3.8998    1.2457 O   0  0  0  0  0  0  0  0  0  0  0  0
    1.8820    4.4643   -1.1490 O   0  0  0  0  0  0  0  0  0  0  0  0
    1.0000    5.0000    0.0000 C   0  0  0  0  0  0  0  0  0  0  0  0
    1.8660    5.5000    0.0000 C   0  0  0  0  0  0  0  0  0  0  0  0
    0.8660    2.5000    0.0000 C   0  0  0  0  0  0  0  0  0  0  0  0
    0.8660    3.5000    0.0000 C   0  0  0  0  0  0  0  0  0  0  0  0
    0.0000    4.0000    0.0000 C   0  0  0  0  0  0  0  0  0  0  0  0
   -0.1340    2.5000    0.0000 C   0  0  0  0  0  0  0  0  0  0  0  0
   -0.6340    3.3660    0.0000 C   0  0  0  0  0  0  0  0  0  0  0  0
    0.8660    1.5000    0.0000 O   0  0  0  0  0  0  0  0  0  0  0  0
    0.2135    0.6290    1.7296 C   0  0  0  0  0  0  0  0  0  0  0  0
   -1.0962    0.8213    2.1353 C   0  0  0  0  0  0  0  0  0  0  0  0
   -2.2375    0.0509    1.8861 O   0  0  0  0  0  0  0  0  0  0  0  0
   -2.2777   -0.9450    0.8096 C   0  0  0  0  0  0  0  0  0  0  0  0
   -0.9774   -1.6517    0.6100 C   0  0  0  0  0  0  0  0  0  0  0  0
    0.0884   -1.0324    1.5668 C   0  0  0  0  0  0  0  0  0  0  0  0
    0.9162   -1.7284    2.1220 O   0  0  0  0  0  0  0  0  0  0  0  0
   -0.3281    0.9108   -1.2226 H   0  0  0  0  0  0  0  0  0  0  0  0
   -0.7602    0.5824    0.0417 H   0  0  0  0  0  0  0  0  0  0  0  0
   -0.7926    2.0350    0.0000 H   0  0  0  0  0  0  0  0  0  0  0  0
    1.0591    0.1598   -1.0614 H   0  0  0  0  0  0  0  0  0  0  0  0
    1.3697   -0.1559    0.3390 H   0  0  0  0  0  0  0  0  0  0  0  0
    2.5636    0.9890    0.9073 H   0  0  0  0  0  0  0  0  0  0  0  0
    2.5763    0.9615   -0.8724 H   0  0  0  0  0  0  0  0  0  0  0  0
    3.5108    2.7771   -0.7013 H   0  0  0  0  0  0  0  0  0  0  0  0
    0.3062    5.9307   -0.3023 H   0  0  0  0  0  0  0  0  0  0  0  0
    1.0347    5.4682    1.1030 H   0  0  0  0  0  0  0  0  0  0  0  0
    2.9873    5.1006    0.0394 H   0  0  0  0  0  0  0  0  0  0  0  0
    1.7572    6.4421   -0.6608 H   0  0  0  0  0  0  0  0  0  0  0  0
    2.7926    6.0350    0.0000 H   0  0  0  0  0  0  0  0  0  0  0  0
    0.6431    3.9779    1.3898 H   0  0  0  0  0  0  0  0  0  0  0  0
    0.8990    3.1326    1.4797 H   0  0  0  0  0  0  0  0  0  0  0  0
   -0.3592    4.8602   -1.1639 H   0  0  0  0  0  0  0  0  0  0  0  0
    0.0578    4.0018   -1.4811 H   0  0  0  0  0  0  0  0  0  0  0  0
   -0.9266    4.5350    0.0000 H   0  0  0  0  0  0  0  0  0  0  0  0
   -0.9642    2.3767   -1.2917 H   0  0  0  0  0  0  0  0  0  0  0  0
    0.1239    2.4635   -1.4945 H   0  0  0  0  0  0  0  0  0  0  0  0
   -1.1835    3.2593    1.2127 H   0  0  0  0  0  0  0  0  0  0  0  0
   -1.8962    3.1413   -0.3427 H   0  0  0  0  0  0  0  0  0  0  0  0
   -1.1690    4.2926    0.0000 H   0  0  0  0  0  0  0  0  0  0  0  0
   -1.5060    1.7705    2.4710 H   0  0  0  0  0  0  0  0  0  0  0  0
   -2.6027   -0.4541   -0.1332 H   0  0  0  0  0  0  0  0  0  0  0  0
   -3.0868   -1.6539    1.0118 H   0  0  0  0  0  0  0  0  0  0  0  0
   -1.1230   -2.7286    0.8525 H   0  0  0  0  0  0  0  0  0  0  0  0
   -0.6531   -1.6334   -0.4076 H   0  0  0  0  0  0  0  0  0  0  0  0
  1  2  1  0  0  0  0
  1 24  1  0  0  0  0
  1 25  1  0  0  0  0
  1 26  1  0  0  0  0
  2  3  1  0  0  0  0
  2 27  1  0  0  0  0
  2 28  1  0  0  0  0
  3  4  1  0  0  0  0
  3 29  1  0  0  0  0
  3 30  1  0  0  0  0
  4  5  1  6  0  0  0
  4  6  1  0  0  0  0
  4 11  1  0  0  0  0
  5 31  1  0  0  0  0
  6  7  2  0  0  0  0
  6  8  1  0  0  0  0
  8  9  1  0  0  0  0
  9 10  1  0  0  0  0
  9 32  1  0  0  0  0
  9 33  1  0  0  0  0
 10 34  1  0  0  0  0
 10 35  1  0  0  0  0
 10 36  1  0  0  0  0
 11 12  1  0  0  0  0
 11 14  1  0  0  0  0
 11 16  1  0  0  0  0
 12 13  1  0  0  0  0
 12 37  1  0  0  0  0
 12 38  1  0  0  0  0
 13 39  1  0  0  0  0
 13 40  1  0  0  0  0
 13 41  1  0  0  0  0
 14 15  1  0  0  0  0
 14 42  1  0  0  0  0
 14 43  1  0  0  0  0
 15 44  1  0  0  0  0
 15 45  1  0  0  0  0
 15 46  1  0  0  0  0
 16 17  1  0  0  0  0
 17 22  1  0  0  0  0
 17 18  2  0  0  0  0
 18 19  1  0  0  0  0
 18 47  1  0  0  0  0
 19 20  1  0  0  0  0
 20 21  1  0  0  0  0
 20 48  1  0  0  0  0
 20 49  1  0  0  0  0
 21 22  1  0  0  0  0
 21 50  1  0  0  0  0
 21 51  1  0  0  0  0
 22 23  2  0  0  0  0
M  END
$$$$
