
 OpenBabel03202621322D

 12 11  0  0  0  0  0  0  0  0999 V2000
    5.1210   -1.8314    0.0000 O   0  0  0  0  0  0  0  0  0  0  0  0
    5.0664   -0.6106   -0.0000 C   0  0  0  0  0  0  0  0  0  0  0  0
    3.9495    0.1777   -0.0000 O   0  0  0  0  0  0  0  0  0  0  0  0
    2.7262   -0.5017   -0.0000 C   0  0  0  0  0  0  0  0  0  0  0  0
    1.5274    0.1120   -0.0000 C   0  0  0  0  0  0  0  0  0  0  0  0
    1.5212    1.8578   -0.0000 Cl  0  0  0  0  0  0  0  0  0  0  0  0
    0.2189   -0.6073    0.0000 C   0  0  0  0  0  0  0  0  0  0  0  0
   -1.2117    0.3615   -0.0000 Cl  0  0  0  0  0  0  0  0  0  0  0  0
    5.9504    0.0458    0.0000 H   0  0  0  0  0  0  0  0  0  0  0  0
    2.8349   -1.5806    0.0000 H   0  0  0  0  0  0  0  0  0  0  0  0
    0.7110   -1.6159    0.0000 H   0  0  0  0  0  0  0  0  0  0  0  0
   -0.4448   -1.4793   -0.0000 H   0  0  0  0  0  0  0  0  0  0  0  0
  1  2  2  0  0  0  0
  2  3  1  0  0  0  0
  2  9  1  0  0  0  0
  3  4  1  0  0  0  0
  4  5  2  3  0  0  0
  4 10  1  0  0  0  0
  5  6  1  0  0  0  0
  5  7  1  0  0  0  0
  7  8  1  0  0  0  0
  7 11  1  0  0  0  0
  7 12  1  0  0  0  0
M  END
$$$$
