
 OpenBabel03202621342D

 30 32  0  0  0  0  0  0  0  0999 V2000
    1.4945   -0.9706    0.0000 C   0  0  0  0  0  0  0  0  0  0  0  0
    0.5000   -0.8660    0.0000 C   0  0  0  0  0  0  0  0  0  0  0  0
   -0.2218   -2.0549    0.0000 C   0  0  0  0  0  0  0  0  0  0  0  0
   -1.4829   -1.6875    0.0000 N   0  0  0  0  0  0  0  0  0  0  0  0
   -2.5665   -2.5464    0.0000 C   0  0  0  0  0  0  0  0  0  0  0  0
   -2.5810   -3.9212    0.0000 C   0  0  0  0  0  0  0  0  0  0  0  0
   -3.8425   -4.5268   -0.0000 C   0  0  0  0  0  0  0  0  0  0  0  0
   -5.0309   -3.7421   -0.0000 C   0  0  0  0  0  0  0  0  0  0  0  0
   -4.9877   -2.3401   -0.0000 C   0  0  0  0  0  0  0  0  0  0  0  0
   -6.0340   -1.2898   -0.0000 C   0  0  0  0  0  0  0  0  0  0  0  0
   -7.2761   -1.8064   -0.0000 N   0  0  0  0  0  0  0  0  0  0  0  0
   -8.3734   -0.9793    0.0000 N   0  0  0  0  0  0  0  0  0  0  0  0
   -8.1978    0.3545    0.0000 C   0  0  0  0  0  0  0  0  0  0  0  0
   -9.6222    1.2981    0.0000 Cl  0  0  0  0  0  0  0  0  0  0  0  0
   -6.9769    0.9530   -0.0000 C   0  0  0  0  0  0  0  0  0  0  0  0
   -5.8593    0.1490   -0.0000 C   0  0  0  0  0  0  0  0  0  0  0  0
   -4.7641    0.9931   -0.0000 O   0  0  0  0  0  0  0  0  0  0  0  0
   -3.7224   -1.8463   -0.0000 C   0  0  0  0  0  0  0  0  0  0  0  0
   -1.5724   -0.3227    0.0000 N   0  0  0  0  0  0  0  0  0  0  0  0
   -0.3492    0.1786    0.0000 N   0  0  0  0  0  0  0  0  0  0  0  0
    1.8247   -2.0275   -0.0000 H   0  0  0  0  0  0  0  0  0  0  0  0
    1.9146    0.0474   -0.0000 H   0  0  0  0  0  0  0  0  0  0  0  0
    2.5586   -1.0825    0.0000 H   0  0  0  0  0  0  0  0  0  0  0  0
    0.0971   -3.0916    0.0000 H   0  0  0  0  0  0  0  0  0  0  0  0
   -1.6790   -4.5289    0.0000 H   0  0  0  0  0  0  0  0  0  0  0  0
   -3.9015   -5.6138    0.0000 H   0  0  0  0  0  0  0  0  0  0  0  0
   -5.9917   -4.2559   -0.0000 H   0  0  0  0  0  0  0  0  0  0  0  0
   -6.8546    2.0312    0.0000 H   0  0  0  0  0  0  0  0  0  0  0  0
   -3.8276    0.7428    0.0000 H   0  0  0  0  0  0  0  0  0  0  0  0
   -3.6156   -0.8071   -0.0000 H   0  0  0  0  0  0  0  0  0  0  0  0
  1  2  1  0  0  0  0
  1 21  1  0  0  0  0
  1 22  1  0  0  0  0
  1 23  1  0  0  0  0
  2 20  1  0  0  0  0
  2  3  2  0  0  0  0
  3  4  1  0  0  0  0
  3 24  1  0  0  0  0
  4  5  1  0  0  0  0
  4 19  1  0  0  0  0
  5 18  2  0  0  0  0
  5  6  1  0  0  0  0
  6  7  2  0  0  0  0
  6 25  1  0  0  0  0
  7  8  1  0  0  0  0
  7 26  1  0  0  0  0
  8  9  2  0  0  0  0
  8 27  1  0  0  0  0
  9 10  1  0  0  0  0
  9 18  1  0  0  0  0
 10 16  2  0  0  0  0
 10 11  1  0  0  0  0
 11 12  2  0  0  0  0
 12 13  1  0  0  0  0
 13 14  1  0  0  0  0
 13 15  2  0  0  0  0
 15 16  1  0  0  0  0
 15 28  1  0  0  0  0
 16 17  1  0  0  0  0
 17 29  1  0  0  0  0
 18 30  1  0  0  0  0
 19 20  2  0  0  0  0
M  END
$$$$
