
 OpenBabel03202621322D

 25 24  0  0  1  0  0  0  0  0999 V2000
    5.3703   -0.2884    0.3941 C   0  0  0  0  0  0  0  0  0  0  0  0
    5.1935    1.0374    0.3284 C   0  0  0  0  0  0  0  0  0  0  0  0
    3.8858    1.7820    0.2692 C   0  0  0  0  0  0  0  0  0  0  0  0
    2.6123    0.9236    0.2705 C   0  0  0  0  0  0  0  0  0  0  0  0
    1.3421    1.7834    0.0790 C   0  0  1  0  0  0  0  0  0  0  0  0
    1.2815    2.6994    1.1988 O   0  0  0  0  0  0  0  0  0  0  0  0
    1.2208    4.0208    0.9257 C   0  0  0  0  0  0  0  0  0  0  0  0
    1.1706    4.8927    1.7828 O   0  0  0  0  0  0  0  0  0  0  0  0
    0.0000    1.0000    0.0000 C   0  0  0  0  0  0  0  0  0  0  0  0
   -1.0891    1.8252   -0.0373 C   0  0  0  0  0  0  0  0  0  0  0  0
    0.0000    0.0000    0.0000 C   0  0  0  0  0  0  0  0  0  0  0  0
    4.5467   -0.9915    0.4167 H   0  0  0  0  0  0  0  0  0  0  0  0
    6.3721   -0.7072    0.4346 H   0  0  0  0  0  0  0  0  0  0  0  0
    6.0819    1.6682    0.3174 H   0  0  0  0  0  0  0  0  0  0  0  0
    3.8988    2.4010   -0.6377 H   0  0  0  0  0  0  0  0  0  0  0  0
    3.8639    2.4726    1.1210 H   0  0  0  0  0  0  0  0  0  0  0  0
    2.6723    0.1815   -0.5349 H   0  0  0  0  0  0  0  0  0  0  0  0
    2.5508    0.3856    1.2252 H   0  0  0  0  0  0  0  0  0  0  0  0
    1.4594    2.3269   -0.8694 H   0  0  0  0  0  0  0  0  0  0  0  0
    1.2029    4.2454   -0.1499 H   0  0  0  0  0  0  0  0  0  0  0  0
   -1.0200    2.9078   -0.0231 H   0  0  0  0  0  0  0  0  0  0  0  0
   -2.1147    1.4545   -0.0647 H   0  0  0  0  0  0  0  0  0  0  0  0
   -1.0824   -0.2716    0.0558 H   0  0  0  0  0  0  0  0  0  0  0  0
    0.3328   -0.1589   -1.0548 H   0  0  0  0  0  0  0  0  0  0  0  0
    0.0000   -1.0700    0.0000 H   0  0  0  0  0  0  0  0  0  0  0  0
  1  2  2  0  0  0  0
  1 12  1  0  0  0  0
  1 13  1  0  0  0  0
  2  3  1  0  0  0  0
  2 14  1  0  0  0  0
  3  4  1  0  0  0  0
  3 15  1  0  0  0  0
  3 16  1  0  0  0  0
  4 17  1  0  0  0  0
  4 18  1  0  0  0  0
  5  4  1  0  0  0  0
  5  6  1  0  0  0  0
  5  9  1  0  0  0  0
  5 19  1  1  0  0  0
  6  7  1  0  0  0  0
  7  8  2  0  0  0  0
  7 20  1  0  0  0  0
  9 10  2  0  0  0  0
  9 11  1  0  0  0  0
 10 21  1  0  0  0  0
 10 22  1  0  0  0  0
 11 23  1  0  0  0  0
 11 24  1  0  0  0  0
 11 25  1  0  0  0  0
M  END
$$$$
