
 OpenBabel03202621392D

 57 57  0  0  1  0  0  0  0  0999 V2000
    3.4641   -5.0000    0.0000 C   0  0  0  0  0  0  0  0  0  0  0  0
    4.3301   -4.5000    0.0000 O   0  0  0  0  0  0  0  0  0  0  0  0
    5.1989   -3.4913    0.2835 C   0  0  0  0  0  0  0  0  0  0  0  0
    6.2853   -3.7027    0.7907 O   0  0  0  0  0  0  0  0  0  0  0  0
    4.9012   -2.3410   -0.3555 N   0  0  0  0  0  0  0  0  0  0  0  0
    4.9745   -1.0275    0.2192 C   0  0  0  0  0  0  0  0  0  0  0  0
    3.5104   -0.7104    0.2330 C   0  0  0  0  0  0  0  0  0  0  0  0
    2.4479   -1.5161    0.6926 C   0  0  0  0  0  0  0  0  0  0  0  0
    0.8660   -1.5000    0.0000 C   0  0  3  0  0  0  0  0  0  0  0  0
    1.3660   -0.6340    0.0000 O   0  0  0  0  0  0  0  0  0  0  0  0
   -0.4791   -0.1868   -0.2144 C   0  0  0  0  0  0  0  0  0  0  0  0
   -1.7510   -0.5241   -0.8066 C   0  0  0  0  0  0  0  0  0  0  0  0
   -2.9143    0.1790   -0.5642 C   0  0  0  0  0  0  0  0  0  0  0  0
   -2.8120    1.5073   -0.0847 C   0  0  0  0  0  0  0  0  0  0  0  0
   -1.5251    2.0071    0.0674 C   0  0  0  0  0  0  0  0  0  0  0  0
   -0.3382    1.2453    0.0810 C   0  0  0  0  0  0  0  0  0  0  0  0
    0.7773    1.8229    0.3232 O   0  5  0  0  0  0  0  0  0  0  0  0
    0.3660   -2.3660    0.0000 C   0  0  1  0  0  0  0  0  0  0  0  0
   -1.1493   -2.8367    0.8503 C   0  0  0  0  0  0  0  0  0  0  0  0
   -2.0087   -4.1028    0.4150 C   0  0  0  0  0  0  0  0  0  0  0  0
   -3.2611   -3.8046   -0.2216 O   0  0  0  0  0  0  0  0  0  0  0  0
    0.3920   -3.1571   -1.1950 C   0  0  0  0  0  0  0  0  0  0  0  0
   -0.4449   -3.4040   -2.0553 O   0  0  0  0  0  0  0  0  0  0  0  0
    1.5079   -3.8906   -1.0534 C   0  0  1  0  0  0  0  0  0  0  0  0
    2.4813   -3.0616   -1.5649 O   0  0  0  0  0  0  0  0  0  0  0  0
    1.0436   -4.3694    0.6813 C   0  0  0  0  0  0  0  0  0  0  0  0
    1.1585   -3.8244    1.7748 O   0  0  0  0  0  0  0  0  0  0  0  0
    0.9269   -5.7942    0.6734 C   0  0  0  0  0  0  0  0  0  0  0  0
    2.3660   -5.8301    0.0000 C   0  0  0  0  0  0  0  0  0  0  0  0
    3.3660   -5.8301    0.0000 C   0  0  0  0  0  0  0  0  0  0  0  0
    1.9112   -6.6927   -1.0221 O   0  0  0  0  0  0  0  0  0  0  0  0
    3.0774   -4.1359    0.7455 H   0  0  0  0  0  0  0  0  0  0  0  0
    3.4366   -4.6648   -1.2754 H   0  0  0  0  0  0  0  0  0  0  0  0
    2.5375   -5.5350    0.0000 H   0  0  0  0  0  0  0  0  0  0  0  0
    4.5707   -2.3892   -1.3072 H   0  0  0  0  0  0  0  0  0  0  0  0
    5.5364   -0.4482   -0.5191 H   0  0  0  0  0  0  0  0  0  0  0  0
    5.4364   -0.9055    1.1993 H   0  0  0  0  0  0  0  0  0  0  0  0
    3.3118    0.1135   -0.4944 H   0  0  0  0  0  0  0  0  0  0  0  0
    2.6909   -2.2458    1.4500 H   0  0  0  0  0  0  0  0  0  0  0  0
    1.2796    0.2490    0.4390 H   0  0  0  0  0  0  0  0  0  0  0  0
   -1.9604   -1.4558   -1.3305 H   0  0  0  0  0  0  0  0  0  0  0  0
   -3.9086   -0.2527   -0.7052 H   0  0  0  0  0  0  0  0  0  0  0  0
   -3.6716    2.0859    0.0955 H   0  0  0  0  0  0  0  0  0  0  0  0
   -1.4364    3.0882    0.2715 H   0  0  0  0  0  0  0  0  0  0  0  0
   -0.3679   -2.0190   -0.6876 H   0  0  0  0  0  0  0  0  0  0  0  0
   -1.8878   -2.0483    0.7581 H   0  0  0  0  0  0  0  0  0  0  0  0
   -0.9804   -2.8432    1.9262 H   0  0  0  0  0  0  0  0  0  0  0  0
   -1.5217   -4.7947   -0.2696 H   0  0  0  0  0  0  0  0  0  0  0  0
   -2.2769   -4.6808    1.3076 H   0  0  0  0  0  0  0  0  0  0  0  0
   -3.6484   -2.9973    0.1551 H   0  0  0  0  0  0  0  0  0  0  0  0
    1.4120   -4.7180   -1.7967 H   0  0  0  0  0  0  0  0  0  0  0  0
    3.0144   -2.7300   -0.8187 H   0  0  0  0  0  0  0  0  0  0  0  0
    0.1522   -5.9720   -0.1061 H   0  0  0  0  0  0  0  0  0  0  0  0
    0.7222   -6.4043    1.5352 H   0  0  0  0  0  0  0  0  0  0  0  0
    3.4757   -6.6360    0.9664 H   0  0  0  0  0  0  0  0  0  0  0  0
    3.7082   -6.7327   -0.8109 H   0  0  0  0  0  0  0  0  0  0  0  0
    4.4360   -5.8301    0.0000 H   0  0  0  0  0  0  0  0  0  0  0  0
  1  2  1  0  0  0  0
  1 32  1  0  0  0  0
  1 33  1  0  0  0  0
  1 34  1  0  0  0  0
  2  3  1  0  0  0  0
  3  4  2  0  0  0  0
  3  5  1  0  0  0  0
  5  6  1  0  0  0  0
  5 35  1  0  0  0  0
  6  7  1  0  0  0  0
  6 36  1  0  0  0  0
  6 37  1  0  0  0  0
  7  8  2  3  0  0  0
  7 38  1  0  0  0  0
  8  9  1  0  0  0  0
  8 39  1  0  0  0  0
  9 10  1  0  0  0  0
  9 11  1  0  0  0  0
  9 18  1  0  0  0  0
 10 40  1  0  0  0  0
 11 16  2  0  0  0  0
 11 12  1  0  0  0  0
 12 13  2  0  0  0  0
 12 41  1  0  0  0  0
 13 14  1  0  0  0  0
 13 42  1  0  0  0  0
 14 15  2  0  0  0  0
 14 43  1  0  0  0  0
 15 16  1  0  0  0  0
 15 44  1  0  0  0  0
 16 17  1  0  0  0  0
 18 19  1  0  0  0  0
 18 22  1  0  0  0  0
 18 45  1  1  0  0  0
 19 20  1  0  0  0  0
 19 46  1  0  0  0  0
 19 47  1  0  0  0  0
 20 21  1  0  0  0  0
 20 48  1  0  0  0  0
 20 49  1  0  0  0  0
 21 50  1  0  0  0  0
 22 23  2  0  0  0  0
 22 24  1  0  0  0  0
 24 25  1  0  0  0  0
 24 26  1  0  0  0  0
 24 51  1  6  0  0  0
 25 52  1  0  0  0  0
 26 27  2  0  0  0  0
 26 28  1  0  0  0  0
 28 29  1  0  0  0  0
 28 53  1  0  0  0  0
 28 54  1  0  0  0  0
 29 30  1  0  0  0  0
 29 31  2  0  0  0  0
 30 55  1  0  0  0  0
 30 56  1  0  0  0  0
 30 57  1  0  0  0  0
M  CHG  1  17  -1
M  END
$$$$
