
 OpenBabel03202621322D

 15 14  0  0  0  0  0  0  0  0999 V2000
    0.8660    2.5000    0.0000 C   0  0  0  0  0  0  0  0  0  0  0  0
    0.0000    3.0000    0.0000 O   0  0  0  0  0  0  0  0  0  0  0  0
   -1.3898    3.0082    0.0000 C   0  0  0  0  0  0  0  0  0  0  0  0
   -1.6183    1.5527   -0.0000 C   0  0  0  0  0  0  0  0  0  0  0  0
   -2.6294    0.8564    0.0000 O   0  0  0  0  0  0  0  0  0  0  0  0
    0.0000    1.0000    0.0000 S   0  0  0  0  0  0  0  0  0  0  0  0
    0.0000    0.0000    0.0000 C   0  0  0  0  0  0  0  0  0  0  0  0
    1.7082    1.4569   -0.0000 H   0  0  0  0  0  0  0  0  0  0  0  0
    1.5566    3.3768   -0.0000 H   0  0  0  0  0  0  0  0  0  0  0  0
    1.7926    1.9650    0.0000 H   0  0  0  0  0  0  0  0  0  0  0  0
   -1.7366    4.0627   -0.0000 H   0  0  0  0  0  0  0  0  0  0  0  0
   -2.4934    2.8763   -0.0000 H   0  0  0  0  0  0  0  0  0  0  0  0
   -0.9925   -0.4619    0.0000 H   0  0  0  0  0  0  0  0  0  0  0  0
    1.0416   -0.3457    0.0000 H   0  0  0  0  0  0  0  0  0  0  0  0
    0.0000   -1.0700    0.0000 H   0  0  0  0  0  0  0  0  0  0  0  0
  1  2  1  0  0  0  0
  1  8  1  0  0  0  0
  1  9  1  0  0  0  0
  1 10  1  0  0  0  0
  2  3  1  0  0  0  0
  3  4  1  0  0  0  0
  3 11  1  0  0  0  0
  3 12  1  0  0  0  0
  4  5  2  0  0  0  0
  4  6  1  0  0  0  0
  6  7  1  0  0  0  0
  7 13  1  0  0  0  0
  7 14  1  0  0  0  0
  7 15  1  0  0  0  0
M  END
$$$$
