
 OpenBabel03202621372D

 22 22  0  0  1  0  0  0  0  0999 V2000
    3.6779    2.1486   -0.2049 C   0  0  0  0  0  0  0  0  0  0  0  0
    2.2603    3.1078   -0.7111 S   0  0  0  0  0  0  0  0  0  0  0  0
    0.8074    2.1879   -0.2983 C   0  0  0  0  0  0  0  0  0  0  0  0
   -0.2431    2.8370   -0.2613 O   0  0  0  0  0  0  0  0  0  0  0  0
    0.8606    0.7263    0.1574 C   0  0  1  0  0  0  0  0  0  0  0  0
    1.5274   -0.2149   -0.7696 N   0  0  0  0  0  0  0  0  0  0  0  0
    1.1459   -1.5388   -0.2719 C   0  0  0  0  0  0  0  0  0  0  0  0
   -0.3334   -1.4115    0.0333 C   0  0  0  0  0  0  0  0  0  0  0  0
   -0.5409    0.0651    0.3960 C   0  0  1  0  0  0  0  0  0  0  0  0
   -1.7047    0.5396   -0.3564 N   0  0  0  0  0  0  0  0  0  0  0  0
    3.9282    1.4153   -0.9754 H   0  0  0  0  0  0  0  0  0  0  0  0
    4.5339    2.8246   -0.1238 H   0  0  0  0  0  0  0  0  0  0  0  0
    3.5513    1.6578    0.7627 H   0  0  0  0  0  0  0  0  0  0  0  0
    1.3950    0.7194    1.1177 H   0  0  0  0  0  0  0  0  0  0  0  0
    2.5355   -0.1212   -0.7529 H   0  0  0  0  0  0  0  0  0  0  0  0
    1.7044   -1.7763    0.6413 H   0  0  0  0  0  0  0  0  0  0  0  0
    1.3441   -2.3232   -1.0081 H   0  0  0  0  0  0  0  0  0  0  0  0
   -0.6434   -2.0744    0.8482 H   0  0  0  0  0  0  0  0  0  0  0  0
   -0.9113   -1.6990   -0.8548 H   0  0  0  0  0  0  0  0  0  0  0  0
   -0.7759    0.1531    1.4651 H   0  0  0  0  0  0  0  0  0  0  0  0
   -1.7286    1.5657   -0.3315 H   0  0  0  0  0  0  0  0  0  0  0  0
   -2.5680    0.2130    0.0714 H   0  0  0  0  0  0  0  0  0  0  0  0
  1  2  1  0  0  0  0
  1 11  1  0  0  0  0
  1 12  1  0  0  0  0
  1 13  1  0  0  0  0
  2  3  1  0  0  0  0
  3  4  2  0  0  0  0
  5  3  1  0  0  0  0
  5  6  1  0  0  0  0
  5  9  1  0  0  0  0
  5 14  1  6  0  0  0
  6  7  1  0  0  0  0
  6 15  1  0  0  0  0
  7  8  1  0  0  0  0
  7 16  1  0  0  0  0
  7 17  1  0  0  0  0
  8  9  1  0  0  0  0
  8 18  1  0  0  0  0
  8 19  1  0  0  0  0
  9 10  1  0  0  0  0
  9 20  1  6  0  0  0
 10 21  1  0  0  0  0
 10 22  1  0  0  0  0
M  END
$$$$
