
 OpenBabel03202621382D

 12 11  0  0  0  0  0  0  0  0999 V2000
    3.5017   -1.8993    0.0000 C   0  0  0  0  0  0  0  0  0  0  0  0
    3.5550   -0.5553    0.0000 C   0  0  0  0  0  0  0  0  0  0  0  0
    2.3798    0.3412    0.0000 C   0  0  0  0  0  0  0  0  0  0  0  0
    2.4903    1.5594    0.0000 O   0  0  0  0  0  0  0  0  0  0  0  0
    0.8660   -0.5000    0.0000 S   0  0  0  0  0  0  0  0  0  0  0  0
    0.0000    0.0000    0.0000 C   0  0  0  0  0  0  0  0  0  0  0  0
    2.5635   -2.4563    0.0000 H   0  0  0  0  0  0  0  0  0  0  0  0
    4.3968   -2.4983    0.0000 H   0  0  0  0  0  0  0  0  0  0  0  0
    4.5108   -0.0374    0.0000 H   0  0  0  0  0  0  0  0  0  0  0  0
    0.1827    1.0795   -0.0000 H   0  0  0  0  0  0  0  0  0  0  0  0
   -0.7915   -0.7547   -0.0000 H   0  0  0  0  0  0  0  0  0  0  0  0
   -0.9266    0.5350    0.0000 H   0  0  0  0  0  0  0  0  0  0  0  0
  1  2  2  0  0  0  0
  1  7  1  0  0  0  0
  1  8  1  0  0  0  0
  2  3  1  0  0  0  0
  2  9  1  0  0  0  0
  3  4  2  0  0  0  0
  3  5  1  0  0  0  0
  5  6  1  0  0  0  0
  6 10  1  0  0  0  0
  6 11  1  0  0  0  0
  6 12  1  0  0  0  0
M  END
$$$$
