
 OpenBabel03202621352D

 24 24  0  0  0  0  0  0  0  0999 V2000
    3.5000    0.8660    0.0000 C   0  0  0  0  0  0  0  0  0  0  0  0
    2.5000    0.8660    0.0000 C   0  0  0  0  0  0  0  0  0  0  0  0
    2.0000    0.0000    0.0000 O   0  0  0  0  0  0  0  0  0  0  0  0
    1.0000    0.0000    0.0000 C   0  0  0  0  0  0  0  0  0  0  0  0
    1.0000    1.0000    0.0000 C   0  0  0  0  0  0  0  0  0  0  0  0
   -0.0323    1.8500    0.0000 O   0  0  0  0  0  0  0  0  0  0  0  0
    1.8660    1.5000    0.0000 S   0  0  0  0  0  0  0  0  0  0  0  0
    1.8660    2.5000    0.0000 C   0  0  0  0  0  0  0  0  0  0  0  0
    0.0000    0.0000    0.0000 C   0  0  0  0  0  0  0  0  0  0  0  0
   -0.2953   -1.3803   -0.0000 N   0  0  0  0  0  0  0  0  0  0  0  0
    1.0000   -1.0000    0.0000 C   0  0  0  0  0  0  0  0  0  0  0  0
    4.3326   -0.2446    0.0000 H   0  0  0  0  0  0  0  0  0  0  0  0
    4.7041    1.7467    0.0000 H   0  0  0  0  0  0  0  0  0  0  0  0
    4.5700    0.8660    0.0000 H   0  0  0  0  0  0  0  0  0  0  0  0
    3.4770    1.9734    0.0000 H   0  0  0  0  0  0  0  0  0  0  0  0
    3.0164   -0.1635    0.0000 H   0  0  0  0  0  0  0  0  0  0  0  0
    2.7885    3.1947    0.0000 H   0  0  0  0  0  0  0  0  0  0  0  0
    0.9471    3.1746    0.0000 H   0  0  0  0  0  0  0  0  0  0  0  0
    1.8660    3.5700    0.0000 H   0  0  0  0  0  0  0  0  0  0  0  0
   -1.0262    0.6440   -0.0000 H   0  0  0  0  0  0  0  0  0  0  0  0
   -1.1373   -0.2550    0.0000 H   0  0  0  0  0  0  0  0  0  0  0  0
   -0.9837   -2.1211   -0.0000 H   0  0  0  0  0  0  0  0  0  0  0  0
    2.0014   -1.7065   -0.0000 H   0  0  0  0  0  0  0  0  0  0  0  0
    1.1297   -2.1375    0.0000 H   0  0  0  0  0  0  0  0  0  0  0  0
  1  2  1  0  0  0  0
  1 12  1  0  0  0  0
  1 13  1  0  0  0  0
  1 14  1  0  0  0  0
  2  3  1  0  0  0  0
  2 15  1  0  0  0  0
  2 16  1  0  0  0  0
  3  4  1  0  0  0  0
  4 11  1  0  0  0  0
  4  5  1  0  0  0  0
  4  9  1  0  0  0  0
  5  6  2  0  0  0  0
  5  7  1  0  0  0  0
  7  8  1  0  0  0  0
  8 17  1  0  0  0  0
  8 18  1  0  0  0  0
  8 19  1  0  0  0  0
  9 10  1  0  0  0  0
  9 20  1  0  0  0  0
  9 21  1  0  0  0  0
 10 11  1  0  0  0  0
 10 22  1  0  0  0  0
 11 23  1  0  0  0  0
 11 24  1  0  0  0  0
M  END
$$$$
