
 OpenBabel03202621382D

 66 68  0  0  1  0  0  0  0  0999 V2000
  -10.2455   -2.2392    0.0000 C   0  0  0  0  0  0  0  0  0  0  0  0
  -10.1150   -3.2306    0.0000 C   0  0  0  0  0  0  0  0  0  0  0  0
  -10.7465   -3.9192    0.8516 O   0  0  0  0  0  0  0  0  0  0  0  0
   -9.4294   -4.1497   -0.9297 C   0  0  0  0  0  0  0  0  0  0  0  0
   -8.1916   -3.6746   -1.5604 C   0  0  0  0  0  0  0  0  0  0  0  0
   -8.1899   -2.6985   -2.3052 O   0  0  0  0  0  0  0  0  0  0  0  0
   -6.9525   -4.4954   -1.2525 C   0  0  2  0  0  0  0  0  0  0  0  0
   -6.0111   -4.4752   -2.2877 O   0  0  0  0  0  0  0  0  0  0  0  0
   -6.4952   -4.1609    0.1726 C   0  0  0  0  0  0  0  0  0  0  0  0
   -7.3092   -4.0122    1.0891 O   0  0  0  0  0  0  0  0  0  0  0  0
   -5.0313   -4.0876    0.4763 C   0  0  2  0  0  0  0  0  0  0  0  0
   -4.4160   -5.4831    0.1870 C   0  0  0  0  0  0  0  0  0  0  0  0
   -5.3529   -6.6486    0.5615 C   0  0  0  0  0  0  0  0  0  0  0  0
   -4.6609   -7.8825    0.6136 O   0  0  0  0  0  0  0  0  0  0  0  0
   -4.3679   -2.9085   -0.2144 C   0  0  0  0  0  0  0  0  0  0  0  0
   -3.3320   -3.0741   -0.8632 O   0  0  0  0  0  0  0  0  0  0  0  0
   -4.9293   -1.4914   -0.0871 C   0  0  0  0  0  0  0  0  0  0  0  0
   -6.2741   -1.1347    0.1072 C   0  0  0  0  0  0  0  0  0  0  0  0
   -6.7159    0.1958   -0.0362 C   0  0  0  0  0  0  0  0  0  0  0  0
   -5.8317    1.1937   -0.4169 C   0  0  0  0  0  0  0  0  0  0  0  0
   -4.4869    0.8789   -0.5294 C   0  0  0  0  0  0  0  0  0  0  0  0
   -4.0493   -0.4266   -0.2576 C   0  0  0  0  0  0  0  0  0  0  0  0
   -2.6680   -0.5805   -0.1070 O   0  0  0  0  0  0  0  0  0  0  0  0
   -2.1787   -1.0146    1.1359 C   0  0  0  0  0  0  0  0  0  0  0  0
   -2.8666   -1.4999    2.0429 O   0  0  0  0  0  0  0  0  0  0  0  0
   -0.8256   -0.7818    1.2673 N   0  0  0  0  0  0  0  0  0  0  0  0
    0.0042   -0.1785    0.2161 C   0  0  0  0  0  0  0  0  0  0  0  0
   -0.5246    1.2776   -0.0349 C   0  0  0  0  0  0  0  0  0  0  0  0
   -0.1002    2.2136   -0.9717 C   0  0  0  0  0  0  0  0  0  0  0  0
   -0.7640    3.4754   -0.8623 C   0  0  0  0  0  0  0  0  0  0  0  0
   -1.7098    3.4770    0.1343 C   0  0  0  0  0  0  0  0  0  0  0  0
   -1.5541    2.0971    1.1177 S   0  0  0  0  0  0  0  0  0  0  0  0
   -0.0260   -1.1781   -0.9753 C   0  0  0  0  0  0  0  0  0  0  0  0
    0.7925   -2.4206   -0.6035 C   0  0  0  0  0  0  0  0  0  0  0  0
    2.1598   -2.0509   -0.4818 O   0  0  0  0  0  0  0  0  0  0  0  0
    2.3766   -1.1976    0.6355 C   0  0  0  0  0  0  0  0  0  0  0  0
    1.4923    0.0372    0.6041 C   0  0  0  0  0  0  0  0  0  0  0  0
  -10.0279   -2.0373    1.0766 H   0  0  0  0  0  0  0  0  0  0  0  0
  -11.3241   -2.2287   -0.2857 H   0  0  0  0  0  0  0  0  0  0  0  0
  -10.3851   -1.1784    0.0000 H   0  0  0  0  0  0  0  0  0  0  0  0
  -10.1045   -4.5315   -1.6927 H   0  0  0  0  0  0  0  0  0  0  0  0
   -9.1489   -5.0157   -0.3164 H   0  0  0  0  0  0  0  0  0  0  0  0
   -7.3039   -5.5223   -1.2113 H   0  0  0  0  0  0  0  0  0  0  0  0
   -6.3709   -5.0047   -3.0260 H   0  0  0  0  0  0  0  0  0  0  0  0
   -4.9097   -3.9033    1.5526 H   0  0  0  0  0  0  0  0  0  0  0  0
   -3.4681   -5.5873    0.7281 H   0  0  0  0  0  0  0  0  0  0  0  0
   -4.1440   -5.5822   -0.8725 H   0  0  0  0  0  0  0  0  0  0  0  0
   -5.8414   -6.4766    1.5246 H   0  0  0  0  0  0  0  0  0  0  0  0
   -6.1245   -6.7828   -0.1978 H   0  0  0  0  0  0  0  0  0  0  0  0
   -5.3355   -8.5713    0.7638 H   0  0  0  0  0  0  0  0  0  0  0  0
   -7.0419   -1.8362    0.3767 H   0  0  0  0  0  0  0  0  0  0  0  0
   -7.7629    0.4423    0.1266 H   0  0  0  0  0  0  0  0  0  0  0  0
   -6.1770    2.2120   -0.5827 H   0  0  0  0  0  0  0  0  0  0  0  0
   -3.7759    1.6523   -0.7982 H   0  0  0  0  0  0  0  0  0  0  0  0
   -0.4285   -1.0536    2.1676 H   0  0  0  0  0  0  0  0  0  0  0  0
    0.6828    2.0172   -1.6939 H   0  0  0  0  0  0  0  0  0  0  0  0
   -0.5740    4.3337   -1.4937 H   0  0  0  0  0  0  0  0  0  0  0  0
   -2.4141    4.2576    0.3911 H   0  0  0  0  0  0  0  0  0  0  0  0
    0.3883   -0.7168   -1.8773 H   0  0  0  0  0  0  0  0  0  0  0  0
   -1.0241   -1.5360   -1.2371 H   0  0  0  0  0  0  0  0  0  0  0  0
    0.4560   -2.8937    0.3343 H   0  0  0  0  0  0  0  0  0  0  0  0
    0.7168   -3.1845   -1.3831 H   0  0  0  0  0  0  0  0  0  0  0  0
    3.4229   -0.8749    0.5824 H   0  0  0  0  0  0  0  0  0  0  0  0
    2.2561   -1.7557    1.5620 H   0  0  0  0  0  0  0  0  0  0  0  0
    1.5868    0.5947    1.5430 H   0  0  0  0  0  0  0  0  0  0  0  0
    1.9401    0.6729   -0.1737 H   0  0  0  0  0  0  0  0  0  0  0  0
  1  2  1  0  0  0  0
  1 38  1  0  0  0  0
  1 39  1  0  0  0  0
  1 40  1  0  0  0  0
  2  3  2  0  0  0  0
  2  4  1  0  0  0  0
  4  5  1  0  0  0  0
  4 41  1  0  0  0  0
  4 42  1  0  0  0  0
  5  6  2  0  0  0  0
  5  7  1  0  0  0  0
  7  8  1  0  0  0  0
  7  9  1  0  0  0  0
  7 43  1  6  0  0  0
  8 44  1  0  0  0  0
  9 10  2  0  0  0  0
  9 11  1  0  0  0  0
 11 12  1  0  0  0  0
 11 15  1  0  0  0  0
 11 45  1  6  0  0  0
 12 13  1  0  0  0  0
 12 46  1  0  0  0  0
 12 47  1  0  0  0  0
 13 14  1  0  0  0  0
 13 48  1  0  0  0  0
 13 49  1  0  0  0  0
 14 50  1  0  0  0  0
 15 16  2  0  0  0  0
 15 17  1  0  0  0  0
 17 22  2  0  0  0  0
 17 18  1  0  0  0  0
 18 19  2  0  0  0  0
 18 51  1  0  0  0  0
 19 20  1  0  0  0  0
 19 52  1  0  0  0  0
 20 21  2  0  0  0  0
 20 53  1  0  0  0  0
 21 22  1  0  0  0  0
 21 54  1  0  0  0  0
 22 23  1  0  0  0  0
 23 24  1  0  0  0  0
 24 25  2  0  0  0  0
 24 26  1  0  0  0  0
 26 27  1  0  0  0  0
 26 55  1  0  0  0  0
 27 37  1  0  0  0  0
 27 28  1  0  0  0  0
 27 33  1  0  0  0  0
 28 32  1  0  0  0  0
 28 29  2  0  0  0  0
 29 30  1  0  0  0  0
 29 56  1  0  0  0  0
 30 31  2  0  0  0  0
 30 57  1  0  0  0  0
 31 32  1  0  0  0  0
 31 58  1  0  0  0  0
 33 34  1  0  0  0  0
 33 59  1  0  0  0  0
 33 60  1  0  0  0  0
 34 35  1  0  0  0  0
 34 61  1  0  0  0  0
 34 62  1  0  0  0  0
 35 36  1  0  0  0  0
 36 37  1  0  0  0  0
 36 63  1  0  0  0  0
 36 64  1  0  0  0  0
 37 65  1  0  0  0  0
 37 66  1  0  0  0  0
M  END
$$$$
