
 OpenBabel03202621372D

 27 29  0  0  0  0  0  0  0  0999 V2000
    1.4945   -0.9706    0.0000 C   0  0  0  0  0  0  0  0  0  0  0  0
    0.5000   -0.8660    0.0000 C   0  0  0  0  0  0  0  0  0  0  0  0
   -0.3561   -1.9333    0.1394 C   0  0  0  0  0  0  0  0  0  0  0  0
   -0.9990   -1.8107   -1.0764 N   0  0  0  0  0  0  0  0  0  0  0  0
   -1.5656   -2.8581   -1.8639 C   0  0  0  0  0  0  0  0  0  0  0  0
   -1.4915   -4.1384   -1.2824 C   0  0  0  0  0  0  0  0  0  0  0  0
   -2.5805   -4.5746   -0.5280 C   0  0  0  0  0  0  0  0  0  0  0  0
   -3.5466   -3.5831   -0.4354 C   0  0  0  0  0  0  0  0  0  0  0  0
   -4.5159   -3.2930    0.4803 N   0  0  0  0  0  0  0  0  0  0  0  0
   -5.2196   -2.2024    0.0000 C   0  0  0  0  0  0  0  0  0  0  0  0
   -6.2196   -2.2024    0.0000 C   0  0  0  0  0  0  0  0  0  0  0  0
   -4.4818   -1.5747   -0.8922 N   0  0  0  0  0  0  0  0  0  0  0  0
   -3.6219   -2.5202   -1.3371 C   0  0  0  0  0  0  0  0  0  0  0  0
   -2.7506   -2.4135   -2.4107 C   0  0  0  0  0  0  0  0  0  0  0  0
   -1.1331   -0.4903   -1.3620 N   0  0  0  0  0  0  0  0  0  0  0  0
   -0.1920    0.1191   -0.6653 N   0  0  0  0  0  0  0  0  0  0  0  0
    1.6876   -1.1342   -1.0910 H   0  0  0  0  0  0  0  0  0  0  0  0
    1.7989    0.0646    0.2864 H   0  0  0  0  0  0  0  0  0  0  0  0
    2.5586   -1.0825    0.0000 H   0  0  0  0  0  0  0  0  0  0  0  0
   -0.2340   -2.8943    0.6173 H   0  0  0  0  0  0  0  0  0  0  0  0
   -0.5257   -4.6191   -1.1258 H   0  0  0  0  0  0  0  0  0  0  0  0
   -2.5232   -5.4231    0.1406 H   0  0  0  0  0  0  0  0  0  0  0  0
   -4.8364   -3.9280    1.2009 H   0  0  0  0  0  0  0  0  0  0  0  0
   -6.4023   -1.1281    0.2392 H   0  0  0  0  0  0  0  0  0  0  0  0
   -6.4465   -2.4173   -1.0753 H   0  0  0  0  0  0  0  0  0  0  0  0
   -7.2896   -2.2024    0.0000 H   0  0  0  0  0  0  0  0  0  0  0  0
   -2.8172   -1.4933   -2.9837 H   0  0  0  0  0  0  0  0  0  0  0  0
  1  2  1  0  0  0  0
  1 17  1  0  0  0  0
  1 18  1  0  0  0  0
  1 19  1  0  0  0  0
  2 16  1  0  0  0  0
  2  3  2  0  0  0  0
  3  4  1  0  0  0  0
  3 20  1  0  0  0  0
  4  5  1  0  0  0  0
  4 15  1  0  0  0  0
  5 14  2  0  0  0  0
  5  6  1  0  0  0  0
  6  7  2  0  0  0  0
  6 21  1  0  0  0  0
  7  8  1  0  0  0  0
  7 22  1  0  0  0  0
  8 13  2  0  0  0  0
  8  9  1  0  0  0  0
  9 10  1  0  0  0  0
  9 23  1  0  0  0  0
 10 11  1  0  0  0  0
 10 12  2  0  0  0  0
 11 24  1  0  0  0  0
 11 25  1  0  0  0  0
 11 26  1  0  0  0  0
 12 13  1  0  0  0  0
 13 14  1  0  0  0  0
 14 27  1  0  0  0  0
 15 16  2  0  0  0  0
M  END
$$$$
