
 OpenBabel03202621362D

 62 64  0  0  1  0  0  0  0  0999 V2000
   -0.6230    2.8298    0.1204 C   0  0  0  0  0  0  0  0  0  0  0  0
   -0.8660    1.5000    0.0000 C   0  0  0  0  0  0  0  0  0  0  0  0
   -1.7321    1.0000    0.0000 C   0  0  0  0  0  0  0  0  0  0  0  0
    0.2873    0.5653   -0.0187 C   0  0  0  0  0  0  0  0  0  0  0  0
    1.4325    0.9369   -0.7006 C   0  0  0  0  0  0  0  0  0  0  0  0
    2.4914    0.0451   -0.8151 C   0  0  0  0  0  0  0  0  0  0  0  0
    3.6744    0.5071   -1.4643 C   0  0  0  0  0  0  0  0  0  0  0  0
    3.9897    1.8324   -1.6149 N   0  0  0  0  0  0  0  0  0  0  0  0
    5.2499    1.8733   -2.0081 N   0  0  0  0  0  0  0  0  0  0  0  0
    5.6473    0.5819   -1.9897 N   0  0  0  0  0  0  0  0  0  0  0  0
    6.9260    0.2311   -1.4206 C   0  0  0  0  0  0  0  0  0  0  0  0
    7.0223    0.6619    0.0521 C   0  0  0  0  0  0  0  0  0  0  0  0
    8.4675    1.0819    0.3442 C   0  0  2  0  0  0  0  0  0  0  0  0
    9.2319   -0.0351    0.9909 C   0  0  0  0  0  0  0  0  0  0  0  0
    8.7168   -0.8739    1.7270 O   0  0  0  0  0  0  0  0  0  0  0  0
   10.6273   -0.2287    0.5439 C   0  0  0  0  0  0  0  0  0  0  0  0
   11.4278    0.8647    0.1801 C   0  0  0  0  0  0  0  0  0  0  0  0
   12.6814    0.6418   -0.3853 C   0  0  0  0  0  0  0  0  0  0  0  0
   13.1351   -0.6616   -0.5754 C   0  0  0  0  0  0  0  0  0  0  0  0
   12.3413   -1.7440   -0.1980 C   0  0  0  0  0  0  0  0  0  0  0  0
   11.0901   -1.5310    0.3609 C   0  0  0  0  0  0  0  0  0  0  0  0
   10.3443   -2.6371    0.6687 O   0  0  0  0  0  0  0  0  0  0  0  0
    8.5217    2.3922    1.0778 C   0  0  0  0  0  0  0  0  0  0  0  0
    9.0964    2.5319    2.1552 O   0  0  0  0  0  0  0  0  0  0  0  0
    7.7855    3.5221    0.3986 C   0  0  1  0  0  0  0  0  0  0  0  0
    7.5459    3.2848   -0.9863 O   0  0  0  0  0  0  0  0  0  0  0  0
    8.4680    4.8460    0.4223 C   0  0  0  0  0  0  0  0  0  0  0  0
    9.6921    4.9716    0.3720 O   0  0  0  0  0  0  0  0  0  0  0  0
    7.5870    6.0441    0.5078 C   0  0  0  0  0  0  0  0  0  0  0  0
    6.1252    5.9860    0.0000 C   0  0  0  0  0  0  0  0  0  0  0  0
    5.7184    6.8996    0.0000 C   0  0  0  0  0  0  0  0  0  0  0  0
    5.6191    4.9323   -0.3822 O   0  0  0  0  0  0  0  0  0  0  0  0
    4.6616   -0.3155   -1.8291 N   0  0  0  0  0  0  0  0  0  0  0  0
    2.4191   -1.2429   -0.2613 C   0  0  0  0  0  0  0  0  0  0  0  0
    1.2724   -1.6452    0.4079 C   0  0  0  0  0  0  0  0  0  0  0  0
    0.2221   -0.7457    0.5221 C   0  0  0  0  0  0  0  0  0  0  0  0
   -0.8814   -1.1758    1.1536 F   0  0  0  0  0  0  0  0  0  0  0  0
    0.3720    3.2575    0.1980 H   0  0  0  0  0  0  0  0  0  0  0  0
   -1.4411    3.5458    0.1874 H   0  0  0  0  0  0  0  0  0  0  0  0
   -2.2391    1.5009   -0.8608 H   0  0  0  0  0  0  0  0  0  0  0  0
   -2.1478    1.3350    0.9832 H   0  0  0  0  0  0  0  0  0  0  0  0
   -2.6588    0.4650    0.0000 H   0  0  0  0  0  0  0  0  0  0  0  0
    1.5033    1.9130   -1.1734 H   0  0  0  0  0  0  0  0  0  0  0  0
    7.0328   -0.8574   -1.4864 H   0  0  0  0  0  0  0  0  0  0  0  0
    7.6682    0.6893   -2.0774 H   0  0  0  0  0  0  0  0  0  0  0  0
    6.6749   -0.1542    0.6974 H   0  0  0  0  0  0  0  0  0  0  0  0
    6.3171    1.4679    0.2801 H   0  0  0  0  0  0  0  0  0  0  0  0
    8.9663    1.2918   -0.6100 H   0  0  0  0  0  0  0  0  0  0  0  0
   11.0999    1.8929    0.3134 H   0  0  0  0  0  0  0  0  0  0  0  0
   13.2960    1.4884   -0.6853 H   0  0  0  0  0  0  0  0  0  0  0  0
   14.1122   -0.8353   -1.0203 H   0  0  0  0  0  0  0  0  0  0  0  0
   12.6965   -2.7630   -0.3530 H   0  0  0  0  0  0  0  0  0  0  0  0
    9.5782   -2.3433    1.2123 H   0  0  0  0  0  0  0  0  0  0  0  0
    6.8424    3.5775    0.9523 H   0  0  0  0  0  0  0  0  0  0  0  0
    6.6231    3.5890   -1.1644 H   0  0  0  0  0  0  0  0  0  0  0  0
    8.1022    6.8304   -0.0685 H   0  0  0  0  0  0  0  0  0  0  0  0
    7.5741    6.3499    1.5633 H   0  0  0  0  0  0  0  0  0  0  0  0
    5.5530    6.9762   -1.1012 H   0  0  0  0  0  0  0  0  0  0  0  0
    4.7860    6.6439    0.5577 H   0  0  0  0  0  0  0  0  0  0  0  0
    5.2832    7.8771    0.0000 H   0  0  0  0  0  0  0  0  0  0  0  0
    3.2579   -1.9284   -0.3377 H   0  0  0  0  0  0  0  0  0  0  0  0
    1.1889   -2.6367    0.8351 H   0  0  0  0  0  0  0  0  0  0  0  0
  1  2  2  0  0  0  0
  1 38  1  0  0  0  0
  1 39  1  0  0  0  0
  2  3  1  0  0  0  0
  2  4  1  0  0  0  0
  3 40  1  0  0  0  0
  3 41  1  0  0  0  0
  3 42  1  0  0  0  0
  4 36  2  0  0  0  0
  4  5  1  0  0  0  0
  5  6  2  0  0  0  0
  5 43  1  0  0  0  0
  6  7  1  0  0  0  0
  6 34  1  0  0  0  0
  7 33  2  0  0  0  0
  7  8  1  0  0  0  0
  8  9  2  0  0  0  0
  9 10  1  0  0  0  0
 10 11  1  0  0  0  0
 10 33  1  0  0  0  0
 11 12  1  0  0  0  0
 11 44  1  0  0  0  0
 11 45  1  0  0  0  0
 12 46  1  0  0  0  0
 12 47  1  0  0  0  0
 13 12  1  0  0  0  0
 13 14  1  0  0  0  0
 13 23  1  0  0  0  0
 13 48  1  6  0  0  0
 14 15  2  0  0  0  0
 14 16  1  0  0  0  0
 16 21  2  0  0  0  0
 16 17  1  0  0  0  0
 17 18  2  0  0  0  0
 17 49  1  0  0  0  0
 18 19  1  0  0  0  0
 18 50  1  0  0  0  0
 19 20  2  0  0  0  0
 19 51  1  0  0  0  0
 20 21  1  0  0  0  0
 20 52  1  0  0  0  0
 21 22  1  0  0  0  0
 22 53  1  0  0  0  0
 23 24  2  0  0  0  0
 23 25  1  0  0  0  0
 25 26  1  0  0  0  0
 25 27  1  0  0  0  0
 25 54  1  6  0  0  0
 26 55  1  0  0  0  0
 27 28  2  0  0  0  0
 27 29  1  0  0  0  0
 29 30  1  0  0  0  0
 29 56  1  0  0  0  0
 29 57  1  0  0  0  0
 30 31  1  0  0  0  0
 30 32  2  0  0  0  0
 31 58  1  0  0  0  0
 31 59  1  0  0  0  0
 31 60  1  0  0  0  0
 34 35  2  0  0  0  0
 34 61  1  0  0  0  0
 35 36  1  0  0  0  0
 35 62  1  0  0  0  0
 36 37  1  0  0  0  0
M  END
$$$$
