
 OpenBabel03202621312D

 26 26  0  0  0  0  0  0  0  0999 V2000
   -2.5981   -1.5000    0.0000 C   0  0  0  0  0  0  0  0  0  0  0  0
   -1.7321   -2.0000    0.0000 S   0  0  0  0  0  0  0  0  0  0  0  0
   -0.0074   -1.9337    0.1952 C   0  0  0  0  0  0  0  0  0  0  0  0
    0.7069   -2.9239    0.2426 O   0  0  0  0  0  0  0  0  0  0  0  0
    0.5003   -0.5735    0.1679 C   0  0  0  0  0  0  0  0  0  0  0  0
   -0.5704    0.2417    0.1966 C   0  0  0  0  0  0  0  0  0  0  0  0
   -1.0038    0.5550   -1.0766 C   0  0  0  0  0  0  0  0  0  0  0  0
   -0.1829    1.5758   -1.2839 C   0  0  0  0  0  0  0  0  0  0  0  0
   -0.8660    2.5000    0.0000 N   0  0  0  0  0  0  0  0  0  0  0  0
    0.0000    3.0000    0.0000 C   0  0  0  0  0  0  0  0  0  0  0  0
   -2.1703    3.0602   -0.4259 C   0  0  0  0  0  0  0  0  0  0  0  0
    1.2432    1.1886   -1.1405 C   0  0  0  0  0  0  0  0  0  0  0  0
    1.5564   -0.0497   -0.5493 C   0  0  0  0  0  0  0  0  0  0  0  0
   -2.6404   -1.1933    1.0649 H   0  0  0  0  0  0  0  0  0  0  0  0
   -3.2890   -2.3626   -0.0743 H   0  0  0  0  0  0  0  0  0  0  0  0
   -3.5247   -0.9650    0.0000 H   0  0  0  0  0  0  0  0  0  0  0  0
   -1.2301    0.2719    1.0627 H   0  0  0  0  0  0  0  0  0  0  0  0
   -2.0498    0.6553   -1.3122 H   0  0  0  0  0  0  0  0  0  0  0  0
    0.3758    2.6871    1.0046 H   0  0  0  0  0  0  0  0  0  0  0  0
   -0.3346    4.0515    0.1774 H   0  0  0  0  0  0  0  0  0  0  0  0
    0.9266    3.5350    0.0000 H   0  0  0  0  0  0  0  0  0  0  0  0
   -2.0753    3.8104   -1.2193 H   0  0  0  0  0  0  0  0  0  0  0  0
   -2.9054    2.3118   -0.7292 H   0  0  0  0  0  0  0  0  0  0  0  0
   -2.6189    3.5486    0.4500 H   0  0  0  0  0  0  0  0  0  0  0  0
    2.0520    1.8845   -1.3739 H   0  0  0  0  0  0  0  0  0  0  0  0
    2.5336   -0.5194   -0.5788 H   0  0  0  0  0  0  0  0  0  0  0  0
  1  2  1  0  0  0  0
  1 14  1  0  0  0  0
  1 15  1  0  0  0  0
  1 16  1  0  0  0  0
  2  3  1  0  0  0  0
  3  4  2  0  0  0  0
  3  5  1  0  0  0  0
  5 13  2  0  0  0  0
  5  6  1  0  0  0  0
  6  7  2  0  0  0  0
  6 17  1  0  0  0  0
  7  8  1  0  0  0  0
  7 18  1  0  0  0  0
  8  9  1  0  0  0  0
  8 12  2  0  0  0  0
  9 10  1  0  0  0  0
  9 11  1  0  0  0  0
 10 19  1  0  0  0  0
 10 20  1  0  0  0  0
 10 21  1  0  0  0  0
 11 22  1  0  0  0  0
 11 23  1  0  0  0  0
 11 24  1  0  0  0  0
 12 13  1  0  0  0  0
 12 25  1  0  0  0  0
 13 26  1  0  0  0  0
M  END
$$$$
