
 OpenBabel03202621312D

 35 36  0  0  1  0  0  0  0  0999 V2000
    2.3025   -2.9022    0.0000 C   0  0  0  0  0  0  0  0  0  0  0  0
    2.8903   -2.0932    0.0000 S   0  0  0  0  0  0  0  0  0  0  0  0
    1.6790   -0.7103   -0.0425 C   0  0  0  0  0  0  0  0  0  0  0  0
    0.3248   -0.9564   -0.7611 C   0  0  1  0  0  0  0  0  0  0  0  0
   -0.4488    0.2387   -0.7660 O   0  0  0  0  0  0  0  0  0  0  0  0
   -0.4698   -2.1144   -0.1217 C   0  0  0  0  0  0  0  0  0  0  0  0
   -1.9792   -2.1222   -0.2531 C   0  0  0  0  0  0  0  0  0  0  0  0
   -2.6468   -1.0351    0.4034 N   0  0  0  0  0  0  0  0  0  0  0  0
   -3.6063   -0.2456   -0.1471 C   0  0  0  0  0  0  0  0  0  0  0  0
   -3.8162    0.7109    0.8128 C   0  0  0  0  0  0  0  0  0  0  0  0
   -4.6813    1.8387    0.6199 C   0  0  0  0  0  0  0  0  0  0  0  0
   -6.0422    1.6249    0.3539 C   0  0  0  0  0  0  0  0  0  0  0  0
   -6.8680    2.6961    0.0177 C   0  0  0  0  0  0  0  0  0  0  0  0
   -6.3317    3.9812   -0.0534 C   0  0  0  0  0  0  0  0  0  0  0  0
   -4.9828    4.1854    0.2295 C   0  0  0  0  0  0  0  0  0  0  0  0
   -4.4734    5.4199    0.1310 F   0  0  0  0  0  0  0  0  0  0  0  0
   -4.1509    3.1285    0.5742 C   0  0  0  0  0  0  0  0  0  0  0  0
   -3.0472    0.4498    1.9109 N   0  0  0  0  0  0  0  0  0  0  0  0
   -2.3643   -0.6651    1.6686 N   0  0  0  0  0  0  0  0  0  0  0  0
    2.3821   -3.1760    1.0706 H   0  0  0  0  0  0  0  0  0  0  0  0
    2.9548   -3.5882   -0.5730 H   0  0  0  0  0  0  0  0  0  0  0  0
    1.6736   -3.7678    0.0000 H   0  0  0  0  0  0  0  0  0  0  0  0
    1.4920   -0.3860    0.9892 H   0  0  0  0  0  0  0  0  0  0  0  0
    2.1871    0.1376   -0.5197 H   0  0  0  0  0  0  0  0  0  0  0  0
    0.5169   -1.1933   -1.8141 H   0  0  0  0  0  0  0  0  0  0  0  0
    0.1419    1.0120   -0.7608 H   0  0  0  0  0  0  0  0  0  0  0  0
   -0.2170   -2.1870    0.9443 H   0  0  0  0  0  0  0  0  0  0  0  0
   -0.1423   -3.0471   -0.5915 H   0  0  0  0  0  0  0  0  0  0  0  0
   -2.3776   -3.0397    0.1945 H   0  0  0  0  0  0  0  0  0  0  0  0
   -2.2651   -2.1226   -1.3118 H   0  0  0  0  0  0  0  0  0  0  0  0
   -3.9859   -0.3806   -1.1477 H   0  0  0  0  0  0  0  0  0  0  0  0
   -6.4534    0.6185    0.3898 H   0  0  0  0  0  0  0  0  0  0  0  0
   -7.9173    2.5232   -0.2019 H   0  0  0  0  0  0  0  0  0  0  0  0
   -6.9529    4.8217   -0.3359 H   0  0  0  0  0  0  0  0  0  0  0  0
   -3.0958    3.3099    0.7566 H   0  0  0  0  0  0  0  0  0  0  0  0
  1  2  1  0  0  0  0
  1 20  1  0  0  0  0
  1 21  1  0  0  0  0
  1 22  1  0  0  0  0
  2  3  1  0  0  0  0
  3  4  1  0  0  0  0
  3 23  1  0  0  0  0
  3 24  1  0  0  0  0
  4  5  1  0  0  0  0
  4  6  1  0  0  0  0
  4 25  1  1  0  0  0
  5 26  1  0  0  0  0
  6  7  1  0  0  0  0
  6 27  1  0  0  0  0
  6 28  1  0  0  0  0
  7  8  1  0  0  0  0
  7 29  1  0  0  0  0
  7 30  1  0  0  0  0
  8 19  1  0  0  0  0
  8  9  1  0  0  0  0
  9 10  2  0  0  0  0
  9 31  1  0  0  0  0
 10 11  1  0  0  0  0
 10 18  1  0  0  0  0
 11 17  2  0  0  0  0
 11 12  1  0  0  0  0
 12 13  2  0  0  0  0
 12 32  1  0  0  0  0
 13 14  1  0  0  0  0
 13 33  1  0  0  0  0
 14 15  2  0  0  0  0
 14 34  1  0  0  0  0
 15 16  1  0  0  0  0
 15 17  1  0  0  0  0
 17 35  1  0  0  0  0
 18 19  2  0  0  0  0
M  END
$$$$
