
 OpenBabel03202621362D

 27 28  0  0  0  0  0  0  0  0999 V2000
    2.0515   -3.0792   -0.2201 N   0  0  0  0  0  0  0  0  0  0  0  0
    2.0972   -1.6087   -0.1684 C   0  0  0  0  0  0  0  0  0  0  0  0
    0.7410   -0.9348   -0.1610 C   0  0  0  0  0  0  0  0  0  0  0  0
   -0.3508   -1.5055   -0.8130 C   0  0  0  0  0  0  0  0  0  0  0  0
   -1.5900   -0.8763   -0.7340 C   0  0  0  0  0  0  0  0  0  0  0  0
   -1.7271    0.2845    0.0216 C   0  0  0  0  0  0  0  0  0  0  0  0
   -2.9120    0.9281    0.2672 O   0  0  0  0  0  0  0  0  0  0  0  0
   -4.1156    0.2179    0.2560 C   0  0  0  0  0  0  0  0  0  0  0  0
   -4.2467   -1.0324    0.7440 C   0  0  0  0  0  0  0  0  0  0  0  0
   -5.5010   -1.8170    0.5680 C   0  0  0  0  0  0  0  0  0  0  0  0
   -6.6570   -1.0996    0.1411 O   0  0  0  0  0  0  0  0  0  0  0  0
   -6.4579    0.1857   -0.2834 C   0  0  0  0  0  0  0  0  0  0  0  0
   -5.3086    0.8908   -0.2814 C   0  0  0  0  0  0  0  0  0  0  0  0
   -5.1093    2.0783   -0.6535 O   0  5  0  0  0  0  0  0  0  0  0  0
   -0.5741    0.8367    0.5534 C   0  0  0  0  0  0  0  0  0  0  0  0
    0.6550    0.2554    0.4895 N   0  0  0  0  0  0  0  0  0  0  0  0
    1.5153   -3.4031    0.5848 H   0  0  0  0  0  0  0  0  0  0  0  0
    2.9968   -3.4328   -0.0948 H   0  0  0  0  0  0  0  0  0  0  0  0
    2.6338   -1.3205    0.7430 H   0  0  0  0  0  0  0  0  0  0  0  0
    2.6672   -1.2365   -1.0255 H   0  0  0  0  0  0  0  0  0  0  0  0
   -0.2555   -2.4398   -1.3529 H   0  0  0  0  0  0  0  0  0  0  0  0
   -2.4468   -1.3109   -1.2413 H   0  0  0  0  0  0  0  0  0  0  0  0
   -3.4109   -1.5350    1.2104 H   0  0  0  0  0  0  0  0  0  0  0  0
   -5.3110   -2.6033   -0.1726 H   0  0  0  0  0  0  0  0  0  0  0  0
   -5.7531   -2.3182    1.5058 H   0  0  0  0  0  0  0  0  0  0  0  0
   -7.3854    0.6167   -0.6352 H   0  0  0  0  0  0  0  0  0  0  0  0
   -0.6151    1.7883    1.0742 H   0  0  0  0  0  0  0  0  0  0  0  0
  1  2  1  0  0  0  0
  1 17  1  0  0  0  0
  1 18  1  0  0  0  0
  2  3  1  0  0  0  0
  2 19  1  0  0  0  0
  2 20  1  0  0  0  0
  3 16  2  0  0  0  0
  3  4  1  0  0  0  0
  4  5  2  0  0  0  0
  4 21  1  0  0  0  0
  5  6  1  0  0  0  0
  5 22  1  0  0  0  0
  6  7  1  0  0  0  0
  6 15  2  0  0  0  0
  7  8  1  0  0  0  0
  8 13  1  0  0  0  0
  8  9  2  0  0  0  0
  9 10  1  0  0  0  0
  9 23  1  0  0  0  0
 10 11  1  0  0  0  0
 10 24  1  0  0  0  0
 10 25  1  0  0  0  0
 11 12  1  0  0  0  0
 12 13  2  0  0  0  0
 12 26  1  0  0  0  0
 13 14  1  0  0  0  0
 15 16  1  0  0  0  0
 15 27  1  0  0  0  0
M  CHG  1  14  -1
M  END
$$$$
