
 OpenBabel03202621362D

 22 22  0  0  0  0  0  0  0  0999 V2000
    2.5823    0.7045    0.0000 C   0  0  0  0  0  0  0  0  0  0  0  0
    1.5878    0.8090    0.0000 C   0  0  0  0  0  0  0  0  0  0  0  0
    1.0748   -0.3955    0.0035 N   0  0  0  0  0  0  0  0  0  0  0  0
    1.5585   -1.6638    0.0005 N   0  0  0  0  0  0  0  0  0  0  0  0
    0.4613   -2.3867    0.0007 C   0  0  0  0  0  0  0  0  0  0  0  0
   -0.6516   -1.5619    0.0010 C   0  0  0  0  0  0  0  0  0  0  0  0
   -0.1647   -0.1633    0.0015 C   0  0  0  0  0  0  0  0  0  0  0  0
   -0.3310    1.5855   -0.0238 C   0  0  0  0  0  0  0  0  0  0  0  0
   -1.5823    0.7045    0.0000 S   0  0  0  0  0  0  0  0  0  0  0  0
   -2.1701    1.5135    0.0000 C   0  0  0  0  0  0  0  0  0  0  0  0
    3.0050   -0.3236   -0.0001 H   0  0  0  0  0  0  0  0  0  0  0  0
    3.2909    1.6484    0.0000 H   0  0  0  0  0  0  0  0  0  0  0  0
    3.6464    0.5927    0.0000 H   0  0  0  0  0  0  0  0  0  0  0  0
    1.8855    1.8731   -0.0009 H   0  0  0  0  0  0  0  0  0  0  0  0
    1.2320    1.7092    0.0050 H   0  0  0  0  0  0  0  0  0  0  0  0
    0.5356   -3.4755   -0.0001 H   0  0  0  0  0  0  0  0  0  0  0  0
   -1.6918   -1.8904   -0.0006 H   0  0  0  0  0  0  0  0  0  0  0  0
    0.2252    2.5958    0.0009 H   0  0  0  0  0  0  0  0  0  0  0  0
   -0.7062    2.5809    0.0087 H   0  0  0  0  0  0  0  0  0  0  0  0
   -2.0660    2.6357   -0.0004 H   0  0  0  0  0  0  0  0  0  0  0  0
   -3.1819    1.0711    0.0000 H   0  0  0  0  0  0  0  0  0  0  0  0
   -2.7990    2.3791    0.0000 H   0  0  0  0  0  0  0  0  0  0  0  0
  1  2  1  0  0  0  0
  1 11  1  0  0  0  0
  1 12  1  0  0  0  0
  1 13  1  0  0  0  0
  2  3  1  0  0  0  0
  2 14  1  0  0  0  0
  2 15  1  0  0  0  0
  3  7  1  0  0  0  0
  3  4  1  0  0  0  0
  4  5  2  0  0  0  0
  5  6  1  0  0  0  0
  5 16  1  0  0  0  0
  6  7  2  0  0  0  0
  6 17  1  0  0  0  0
  7  8  1  0  0  0  0
  8  9  1  0  0  0  0
  8 18  1  0  0  0  0
  8 19  1  0  0  0  0
  9 10  1  0  0  0  0
 10 20  1  0  0  0  0
 10 21  1  0  0  0  0
 10 22  1  0  0  0  0
M  END
$$$$
