
 OpenBabel03202621382D

 31 32  0  0  1  0  0  0  0  0999 V2000
    3.5409    2.1029   -0.3292 C   0  0  0  0  0  0  0  0  0  0  0  0
    2.2330    1.8323   -0.2635 C   0  0  0  0  0  0  0  0  0  0  0  0
    1.6294    0.5438    0.2267 C   0  0  2  0  0  0  0  0  0  0  0  0
    2.2737   -0.7518   -0.2498 C   0  0  0  0  0  0  0  0  0  0  0  0
    1.1714   -1.7673    0.0158 C   0  0  0  0  0  0  0  0  0  0  0  0
   -0.0429   -1.0830   -0.4403 N   0  0  3  0  0  0  0  0  0  0  0  0
   -1.2960   -1.5938    0.1609 C   0  0  3  0  0  0  0  0  0  0  0  0
   -1.5303   -3.0960   -0.0682 C   0  0  0  0  0  0  0  0  0  0  0  0
   -2.7535   -3.5187    0.5547 O   0  0  0  0  0  0  0  0  0  0  0  0
   -3.8912   -2.9237   -0.0715 C   0  0  0  0  0  0  0  0  0  0  0  0
   -3.8655   -1.4204    0.0948 C   0  0  0  0  0  0  0  0  0  0  0  0
   -2.5487   -0.8966   -0.4181 C   0  0  0  0  0  0  0  0  0  0  0  0
   -2.5294    0.0891   -1.1571 O   0  0  0  0  0  0  0  0  0  0  0  0
    0.1609    0.3590   -0.1915 C   0  0  0  0  0  0  0  0  0  0  0  0
    4.2950    1.3856   -0.0236 H   0  0  0  0  0  0  0  0  0  0  0  0
    3.8861    3.0733   -0.6801 H   0  0  0  0  0  0  0  0  0  0  0  0
    1.5360    2.6160   -0.5604 H   0  0  0  0  0  0  0  0  0  0  0  0
    1.6593    0.5609    1.3256 H   0  0  0  0  0  0  0  0  0  0  0  0
    3.1904   -0.9920    0.2986 H   0  0  0  0  0  0  0  0  0  0  0  0
    2.5127   -0.7115   -1.3208 H   0  0  0  0  0  0  0  0  0  0  0  0
    1.3472   -2.6968   -0.5350 H   0  0  0  0  0  0  0  0  0  0  0  0
    1.1299   -1.9933    1.0892 H   0  0  0  0  0  0  0  0  0  0  0  0
   -1.3030   -1.3906    1.2409 H   0  0  0  0  0  0  0  0  0  0  0  0
   -0.7317   -3.6875    0.3900 H   0  0  0  0  0  0  0  0  0  0  0  0
   -1.5607   -3.3497   -1.1353 H   0  0  0  0  0  0  0  0  0  0  0  0
   -4.7867   -3.3335    0.4067 H   0  0  0  0  0  0  0  0  0  0  0  0
   -3.9162   -3.2134   -1.1285 H   0  0  0  0  0  0  0  0  0  0  0  0
   -3.9443   -1.1348    1.1498 H   0  0  0  0  0  0  0  0  0  0  0  0
   -4.6893   -0.9583   -0.4583 H   0  0  0  0  0  0  0  0  0  0  0  0
   -0.4854    0.7557    0.6014 H   0  0  0  0  0  0  0  0  0  0  0  0
   -0.0630    0.9046   -1.1153 H   0  0  0  0  0  0  0  0  0  0  0  0
  1  2  2  0  0  0  0
  1 15  1  0  0  0  0
  1 16  1  0  0  0  0
  2 17  1  0  0  0  0
  3  2  1  0  0  0  0
  3  4  1  0  0  0  0
  3 14  1  0  0  0  0
  3 18  1  1  0  0  0
  4  5  1  0  0  0  0
  4 19  1  0  0  0  0
  4 20  1  0  0  0  0
  5  6  1  0  0  0  0
  5 21  1  0  0  0  0
  5 22  1  0  0  0  0
  6  7  1  0  0  0  0
  6 14  1  0  0  0  0
  7 12  1  0  0  0  0
  7  8  1  0  0  0  0
  7 23  1  0  0  0  0
  8  9  1  0  0  0  0
  8 24  1  0  0  0  0
  8 25  1  0  0  0  0
  9 10  1  0  0  0  0
 10 11  1  0  0  0  0
 10 26  1  0  0  0  0
 10 27  1  0  0  0  0
 11 12  1  0  0  0  0
 11 28  1  0  0  0  0
 11 29  1  0  0  0  0
 12 13  2  0  0  0  0
 14 30  1  0  0  0  0
 14 31  1  0  0  0  0
M  END
$$$$
