
 OpenBabel03202621282D

 15 17  0  0  1  0  0  0  0  0999 V2000
    0.8660    1.5000    0.0000 O   0  5  0  0  0  0  0  0  0  0  0  0
   -0.1340    1.5000    0.0000 C   0  0  0  0  0  0  0  0  0  0  0  0
   -0.6340    0.6340    0.0000 C   0  0  0  0  0  0  0  0  0  0  0  0
   -1.6340    0.6340    0.0000 O   0  0  0  0  0  0  0  0  0  0  0  0
   -2.1340    1.5000    0.0000 C   0  0  0  0  0  0  0  0  0  0  0  0
   -1.6340    2.3660    0.0000 C   0  0  0  0  0  0  0  0  0  0  0  0
   -0.6340    2.3660    0.0000 C   0  0  3  0  0  0  0  0  0  0  0  0
   -0.1340    3.2321    0.0000 N   0  0  0  0  0  0  0  0  0  0  0  0
    0.8660    3.2321    0.0000 C   0  0  0  0  0  0  0  0  0  0  0  0
    1.3660    2.3660    0.0000 C   0  0  1  0  0  0  0  0  0  0  0  0
    2.2321    1.8660    0.0000 C   0  0  0  0  0  0  0  0  0  0  0  0
    1.3660    1.3660    0.0000 C   0  0  1  0  0  0  0  0  0  0  0  0
    0.8660    0.5000    0.0000 C   0  0  0  0  0  0  0  0  0  0  0  0
    0.8660   -0.5000    0.0000 C   0  0  0  0  0  0  0  0  0  0  0  0
   -0.0000   -0.0000    0.0000 C   0  0  0  0  0  0  0  0  0  0  0  0
  1  2  1  0  0  0  0
  2  7  1  0  0  0  0
  2  3  2  0  0  0  0
  3  4  1  0  0  0  0
  4  5  1  0  0  0  0
  5  6  1  0  0  0  0
  6  7  1  0  0  0  0
  7  8  1  0  0  0  0
  8  9  1  0  0  0  0
 10  9  1  1  0  0  0
 10 11  1  0  0  0  0
 10 12  1  0  0  0  0
 11 12  1  0  0  0  0
 12 13  1  1  0  0  0
 13 15  1  0  0  0  0
 13 14  1  0  0  0  0
 14 15  1  0  0  0  0
M  CHG  1   1  -1
M  END
$$$$
