
 OpenBabel03202621302D

 25 26  0  0  1  0  0  0  0  0999 V2000
    1.1924   -1.3243    0.0000 C   0  0  0  0  0  0  0  0  0  0  0  0
    0.2588   -0.9659    0.0000 N   0  0  0  0  0  0  0  0  0  0  0  0
   -0.9411   -1.5312   -0.3763 C   0  0  0  0  0  0  0  0  0  0  0  0
   -1.9439   -0.5973   -0.2073 C   0  0  0  0  0  0  0  0  0  0  0  0
   -3.4126   -0.7407   -0.5633 C   0  0  3  0  0  0  0  0  0  0  0  0
   -3.5174   -1.6338   -1.6950 O   0  0  0  0  0  0  0  0  0  0  0  0
   -4.1534   -1.3985    0.6139 C   0  0  0  0  0  0  0  0  0  0  0  0
   -5.6388   -1.1292    0.4813 C   0  0  0  0  0  0  0  0  0  0  0  0
   -5.9046    0.2735    0.5713 O   0  0  0  0  0  0  0  0  0  0  0  0
   -5.2018    0.9820   -0.3662 C   0  0  0  0  0  0  0  0  0  0  0  0
   -4.0913    0.5881   -1.0221 C   0  0  0  0  0  0  0  0  0  0  0  0
   -3.5252    1.1331   -2.0131 O   0  5  0  0  0  0  0  0  0  0  0  0
   -1.2644    0.5040    0.3446 C   0  0  0  0  0  0  0  0  0  0  0  0
    0.0365    0.2613    0.5510 N   0  0  0  0  0  0  0  0  0  0  0  0
    1.0839   -2.4253   -0.1482 H   0  0  0  0  0  0  0  0  0  0  0  0
    1.6166   -0.8827   -0.9337 H   0  0  0  0  0  0  0  0  0  0  0  0
    2.1913   -1.7078    0.0000 H   0  0  0  0  0  0  0  0  0  0  0  0
   -1.0036   -2.5324   -0.7828 H   0  0  0  0  0  0  0  0  0  0  0  0
   -3.3536   -0.9772   -2.4109 H   0  0  0  0  0  0  0  0  0  0  0  0
   -3.8097   -0.9767    1.5680 H   0  0  0  0  0  0  0  0  0  0  0  0
   -3.9763   -2.4804    0.6379 H   0  0  0  0  0  0  0  0  0  0  0  0
   -6.0496   -1.5241   -0.4562 H   0  0  0  0  0  0  0  0  0  0  0  0
   -6.1810   -1.6163    1.2979 H   0  0  0  0  0  0  0  0  0  0  0  0
   -5.6854    1.9264   -0.5725 H   0  0  0  0  0  0  0  0  0  0  0  0
   -1.6758    1.4717    0.6040 H   0  0  0  0  0  0  0  0  0  0  0  0
  1  2  1  0  0  0  0
  1 15  1  0  0  0  0
  1 16  1  0  0  0  0
  1 17  1  0  0  0  0
  2 14  1  0  0  0  0
  2  3  1  0  0  0  0
  3  4  2  0  0  0  0
  3 18  1  0  0  0  0
  4  5  1  0  0  0  0
  4 13  1  0  0  0  0
  5 11  1  0  0  0  0
  5  6  1  0  0  0  0
  5  7  1  0  0  0  0
  6 19  1  0  0  0  0
  7  8  1  0  0  0  0
  7 20  1  0  0  0  0
  7 21  1  0  0  0  0
  8  9  1  0  0  0  0
  8 22  1  0  0  0  0
  8 23  1  0  0  0  0
  9 10  1  0  0  0  0
 10 11  2  0  0  0  0
 10 24  1  0  0  0  0
 11 12  1  0  0  0  0
 13 14  2  0  0  0  0
 13 25  1  0  0  0  0
M  CHG  1  12  -1
M  END
$$$$
