
 OpenBabel03202621372D

 77 80  0  0  1  0  0  0  0  0999 V2000
   10.5263   -1.5000    0.0000 C   0  0  0  0  0  0  0  0  0  0  0  0
    9.6603   -1.0000    0.0000 C   0  0  0  0  0  0  0  0  0  0  0  0
    9.1436   -0.3333   -0.8944 O   0  0  0  0  0  0  0  0  0  0  0  0
    9.2296   -0.9868    1.4305 C   0  0  0  0  0  0  0  0  0  0  0  0
    7.7999   -0.8969    1.4131 C   0  0  0  0  0  0  0  0  0  0  0  0
    7.3538   -0.1814    2.3186 O   0  0  0  0  0  0  0  0  0  0  0  0
    7.0622   -1.5000    0.0000 C   0  0  2  0  0  0  0  0  0  0  0  0
    5.7315   -1.4919    1.0284 O   0  0  0  0  0  0  0  0  0  0  0  0
    5.0605   -0.2321    1.2659 C   0  0  0  0  0  0  0  0  0  0  0  0
    5.1295    0.7324    0.0761 C   0  0  1  0  0  0  0  0  0  0  0  0
    4.3097    1.8788    0.3034 O   0  0  0  0  0  0  0  0  0  0  0  0
    4.8315   -0.0283   -1.2627 C   0  0  0  0  0  0  0  0  0  0  0  0
    3.4469   -0.3927   -1.4461 N   0  0  0  0  0  0  0  0  0  0  0  0
    2.6528    0.6030   -1.3801 C   0  0  0  0  0  0  0  0  0  0  0  0
    2.3817    1.3156   -2.3572 O   0  0  0  0  0  0  0  0  0  0  0  0
    1.8660    0.5000    0.0000 C   0  0  1  0  0  0  0  0  0  0  0  0
    1.0000    1.0000    0.0000 C   0  0  0  0  0  0  0  0  0  0  0  0
    0.1340    1.5000    0.0000 C   0  0  0  0  0  0  0  0  0  0  0  0
    1.0000    2.0000    0.0000 C   0  0  0  0  0  0  0  0  0  0  0  0
    1.0000    0.0000    0.0000 C   0  0  1  0  0  0  0  0  0  0  0  0
   -0.6480   -0.4898    0.6800 C   0  0  0  0  0  0  0  0  0  0  0  0
   -0.4728   -1.2459   -0.6122 C   0  0  0  0  0  0  0  0  0  0  0  0
    1.0000   -1.0000    0.0000 C   0  0  1  0  0  0  0  0  0  0  0  0
    1.2588   -1.9659    0.0000 C   0  0  0  0  0  0  0  0  0  0  0  0
    2.8417   -1.3270   -0.6556 C   0  0  0  0  0  0  0  0  0  0  0  0
    3.6353   -2.1356   -0.1875 O   0  0  0  0  0  0  0  0  0  0  0  0
    7.0622   -2.5000    0.0000 C   0  0  0  0  0  0  0  0  0  0  0  0
    8.1811   -2.9905    0.2943 O   0  0  0  0  0  0  0  0  0  0  0  0
    6.0555   -3.7303   -0.1291 C   0  0  2  0  0  0  0  0  0  0  0  0
    5.0826   -4.0389   -1.2822 C   0  0  0  0  0  0  0  0  0  0  0  0
    3.7560   -4.6598   -0.7194 C   0  0  0  0  0  0  0  0  0  0  0  0
    3.6750   -6.0657   -0.8659 O   0  0  0  0  0  0  0  0  0  0  0  0
    6.6023   -5.1294    0.2889 C   0  0  0  0  0  0  0  0  0  0  0  0
    6.0182   -5.6515    1.2529 O   0  0  0  0  0  0  0  0  0  0  0  0
    7.7676   -5.8894   -0.3826 C   0  0  0  0  0  0  0  0  0  0  0  0
    8.9246   -5.2032   -0.7920 C   0  0  0  0  0  0  0  0  0  0  0  0
   10.1881   -5.7780   -0.6864 C   0  0  0  0  0  0  0  0  0  0  0  0
   10.2848   -7.1116   -0.3566 C   0  0  0  0  0  0  0  0  0  0  0  0
    9.1134   -7.8658   -0.2624 C   0  0  0  0  0  0  0  0  0  0  0  0
    7.8101   -7.3105   -0.3036 C   0  0  0  0  0  0  0  0  0  0  0  0
    6.7856   -8.0739   -0.2834 O   0  5  0  0  0  0  0  0  0  0  0  0
   10.3374   -2.1156   -0.9120 H   0  0  0  0  0  0  0  0  0  0  0  0
   11.1905   -0.6305   -0.2311 H   0  0  0  0  0  0  0  0  0  0  0  0
   11.4529   -2.0350    0.0000 H   0  0  0  0  0  0  0  0  0  0  0  0
    9.4793   -1.9165    1.9698 H   0  0  0  0  0  0  0  0  0  0  0  0
    9.7046   -0.1567    1.9655 H   0  0  0  0  0  0  0  0  0  0  0  0
    7.0622   -0.4300    0.0000 H   0  0  0  0  0  0  0  0  0  0  0  0
    4.0444   -0.4942    1.5672 H   0  0  0  0  0  0  0  0  0  0  0  0
    5.3739    0.2707    2.1909 H   0  0  0  0  0  0  0  0  0  0  0  0
    6.1375    1.1532    0.0192 H   0  0  0  0  0  0  0  0  0  0  0  0
    4.8459    2.6783    0.1599 H   0  0  0  0  0  0  0  0  0  0  0  0
    5.1740    0.5551   -2.1095 H   0  0  0  0  0  0  0  0  0  0  0  0
    5.3690   -0.9802   -1.3290 H   0  0  0  0  0  0  0  0  0  0  0  0
    2.5197    0.5348    0.8786 H   0  0  0  0  0  0  0  0  0  0  0  0
   -0.4923    1.1680   -0.9555 H   0  0  0  0  0  0  0  0  0  0  0  0
   -0.3520    1.4500    1.1276 H   0  0  0  0  0  0  0  0  0  0  0  0
   -0.7926    2.0350    0.0000 H   0  0  0  0  0  0  0  0  0  0  0  0
    1.7668    2.4319   -0.7639 H   0  0  0  0  0  0  0  0  0  0  0  0
    1.5385    2.3118    1.0481 H   0  0  0  0  0  0  0  0  0  0  0  0
    1.0000    3.0700    0.0000 H   0  0  0  0  0  0  0  0  0  0  0  0
   -0.5507   -0.9574    1.6707 H   0  0  0  0  0  0  0  0  0  0  0  0
   -1.5785    0.0923    0.6069 H   0  0  0  0  0  0  0  0  0  0  0  0
   -0.9853   -2.2203   -0.5594 H   0  0  0  0  0  0  0  0  0  0  0  0
   -0.7225   -0.7812   -1.5728 H   0  0  0  0  0  0  0  0  0  0  0  0
    0.7733   -2.4070    0.9068 H   0  0  0  0  0  0  0  0  0  0  0  0
    1.0432   -2.4059   -1.0301 H   0  0  0  0  0  0  0  0  0  0  0  0
    1.5357   -2.9994    0.0000 H   0  0  0  0  0  0  0  0  0  0  0  0
    5.4141   -3.5443    0.7457 H   0  0  0  0  0  0  0  0  0  0  0  0
    4.8579   -3.1272   -1.8410 H   0  0  0  0  0  0  0  0  0  0  0  0
    5.5151   -4.7408   -2.0022 H   0  0  0  0  0  0  0  0  0  0  0  0
    3.5794   -4.4368    0.3420 H   0  0  0  0  0  0  0  0  0  0  0  0
    2.9061   -4.2530   -1.2763 H   0  0  0  0  0  0  0  0  0  0  0  0
    4.2809   -6.4659   -0.2004 H   0  0  0  0  0  0  0  0  0  0  0  0
    8.8915   -4.1890   -1.1461 H   0  0  0  0  0  0  0  0  0  0  0  0
   11.0771   -5.1744   -0.8280 H   0  0  0  0  0  0  0  0  0  0  0  0
   11.2512   -7.5860   -0.2211 H   0  0  0  0  0  0  0  0  0  0  0  0
    9.2043   -8.9429   -0.1197 H   0  0  0  0  0  0  0  0  0  0  0  0
  1  2  1  0  0  0  0
  1 42  1  0  0  0  0
  1 43  1  0  0  0  0
  1 44  1  0  0  0  0
  2  3  2  0  0  0  0
  2  4  1  0  0  0  0
  4  5  1  0  0  0  0
  4 45  1  0  0  0  0
  4 46  1  0  0  0  0
  5  6  2  0  0  0  0
  7  5  1  0  0  0  0
  7  8  1  0  0  0  0
  7 27  1  0  0  0  0
  7 47  1  6  0  0  0
  8  9  1  0  0  0  0
  9 10  1  0  0  0  0
  9 48  1  0  0  0  0
  9 49  1  0  0  0  0
 10 11  1  0  0  0  0
 10 12  1  0  0  0  0
 10 50  1  1  0  0  0
 11 51  1  0  0  0  0
 12 13  1  0  0  0  0
 12 52  1  0  0  0  0
 12 53  1  0  0  0  0
 13 25  1  0  0  0  0
 13 14  1  0  0  0  0
 14 15  2  0  0  0  0
 16 14  1  0  0  0  0
 16 17  1  0  0  0  0
 16 20  1  0  0  0  0
 16 54  1  1  0  0  0
 17 18  1  0  0  0  0
 17 19  1  0  0  0  0
 18 55  1  0  0  0  0
 18 56  1  0  0  0  0
 18 57  1  0  0  0  0
 19 58  1  0  0  0  0
 19 59  1  0  0  0  0
 19 60  1  0  0  0  0
 20 17  1  1  0  0  0
 20 23  1  0  0  0  0
 20 21  1  0  0  0  0
 21 22  1  0  0  0  0
 21 61  1  0  0  0  0
 21 62  1  0  0  0  0
 22 23  1  0  0  0  0
 22 63  1  0  0  0  0
 22 64  1  0  0  0  0
 23 24  1  6  0  0  0
 23 25  1  0  0  0  0
 24 65  1  0  0  0  0
 24 66  1  0  0  0  0
 24 67  1  0  0  0  0
 25 26  2  0  0  0  0
 27 28  2  0  0  0  0
 27 29  1  0  0  0  0
 29 30  1  0  0  0  0
 29 33  1  0  0  0  0
 29 68  1  6  0  0  0
 30 31  1  0  0  0  0
 30 69  1  0  0  0  0
 30 70  1  0  0  0  0
 31 32  1  0  0  0  0
 31 71  1  0  0  0  0
 31 72  1  0  0  0  0
 32 73  1  0  0  0  0
 33 34  2  0  0  0  0
 33 35  1  0  0  0  0
 35 40  2  0  0  0  0
 35 36  1  0  0  0  0
 36 37  2  0  0  0  0
 36 74  1  0  0  0  0
 37 38  1  0  0  0  0
 37 75  1  0  0  0  0
 38 39  2  0  0  0  0
 38 76  1  0  0  0  0
 39 40  1  0  0  0  0
 39 77  1  0  0  0  0
 40 41  1  0  0  0  0
M  CHG  1  41  -1
M  END
$$$$
