
 OpenBabel03202621342D

 32 34  0  0  1  0  0  0  0  0999 V2000
    1.6730   -0.6137    0.0000 C   0  0  0  0  0  0  0  0  0  0  0  0
    0.6802   -0.7331    0.0000 C   0  0  0  0  0  0  0  0  0  0  0  0
    0.1380   -1.2571    1.1616 C   0  0  0  0  0  0  0  0  0  0  0  0
   -1.1392   -0.7396    1.1475 N   0  0  0  0  0  0  0  0  0  0  0  0
   -2.1178   -1.6174    0.5309 C   0  0  2  0  0  0  0  0  0  0  0  0
   -1.8444   -3.0080    1.0964 C   0  0  0  0  0  0  0  0  0  0  0  0
   -1.6494   -3.3028    2.2634 O   0  0  0  0  0  0  0  0  0  0  0  0
   -1.7896   -3.8752    0.0000 N   0  0  0  0  0  0  0  0  0  0  0  0
   -1.2896   -4.7412    0.0000 C   0  0  0  0  0  0  0  0  0  0  0  0
   -3.1872   -4.1065   -0.4074 N   0  0  0  0  0  0  0  0  0  0  0  0
   -4.2564   -3.3783   -0.2419 C   0  0  0  0  0  0  0  0  0  0  0  0
   -4.5349   -1.9938    0.1903 C   0  0  0  0  0  0  0  0  0  0  0  0
   -5.8558   -1.5224    0.0619 C   0  0  0  0  0  0  0  0  0  0  0  0
   -6.1405   -0.1554    0.0620 C   0  0  0  0  0  0  0  0  0  0  0  0
   -5.1215    0.7491    0.1658 C   0  0  0  0  0  0  0  0  0  0  0  0
   -3.8281    0.2783    0.3728 C   0  0  0  0  0  0  0  0  0  0  0  0
   -3.5185   -1.1023    0.4632 C   0  0  0  0  0  0  0  0  0  0  0  0
   -1.0142    0.4707    0.5591 N   0  0  0  0  0  0  0  0  0  0  0  0
   -0.1994    0.2319   -0.4550 N   0  0  0  0  0  0  0  0  0  0  0  0
    1.9256   -1.4063   -0.7448 H   0  0  0  0  0  0  0  0  0  0  0  0
    1.8104    0.3708   -0.5160 H   0  0  0  0  0  0  0  0  0  0  0  0
    2.7353   -0.4859    0.0000 H   0  0  0  0  0  0  0  0  0  0  0  0
    0.5147   -1.9039    1.9484 H   0  0  0  0  0  0  0  0  0  0  0  0
   -1.8195   -1.6528   -0.5313 H   0  0  0  0  0  0  0  0  0  0  0  0
   -1.6055   -5.1818   -0.9817 H   0  0  0  0  0  0  0  0  0  0  0  0
   -0.2885   -4.3148   -0.2437 H   0  0  0  0  0  0  0  0  0  0  0  0
   -0.7546   -5.6678    0.0000 H   0  0  0  0  0  0  0  0  0  0  0  0
   -5.1755   -3.9226   -0.5625 H   0  0  0  0  0  0  0  0  0  0  0  0
   -6.6731   -2.2167   -0.1110 H   0  0  0  0  0  0  0  0  0  0  0  0
   -7.1614    0.2029   -0.0873 H   0  0  0  0  0  0  0  0  0  0  0  0
   -5.2783    1.8235    0.0499 H   0  0  0  0  0  0  0  0  0  0  0  0
   -3.0626    1.0555    0.3732 H   0  0  0  0  0  0  0  0  0  0  0  0
  1  2  1  0  0  0  0
  1 20  1  0  0  0  0
  1 21  1  0  0  0  0
  1 22  1  0  0  0  0
  2 19  1  0  0  0  0
  2  3  2  0  0  0  0
  3  4  1  0  0  0  0
  3 23  1  0  0  0  0
  4 18  1  0  0  0  0
  5  4  1  0  0  0  0
  5  6  1  0  0  0  0
  5 17  1  0  0  0  0
  5 24  1  1  0  0  0
  6  7  2  0  0  0  0
  6  8  1  0  0  0  0
  8  9  1  0  0  0  0
  8 10  1  0  0  0  0
  9 25  1  0  0  0  0
  9 26  1  0  0  0  0
  9 27  1  0  0  0  0
 10 11  2  0  0  0  0
 11 12  1  0  0  0  0
 11 28  1  0  0  0  0
 12 17  2  0  0  0  0
 12 13  1  0  0  0  0
 13 14  2  0  0  0  0
 13 29  1  0  0  0  0
 14 15  1  0  0  0  0
 14 30  1  0  0  0  0
 15 16  2  0  0  0  0
 15 31  1  0  0  0  0
 16 17  1  0  0  0  0
 16 32  1  0  0  0  0
 18 19  2  0  0  0  0
M  END
$$$$
