
 OpenBabel03202621282D

 16 17  0  0  0  0  0  0  0  0999 V2000
   -0.6386   -1.6637    0.0000 C   0  0  0  0  0  0  0  0  0  0  0  0
   -0.7431   -0.6691    0.0000 C   0  0  0  0  0  0  0  0  0  0  0  0
   -1.6092   -0.1691    0.0000 C   0  0  0  0  0  0  0  0  0  0  0  0
   -1.4013    0.8090    0.0000 N   0  0  0  0  0  0  0  0  0  0  0  0
   -2.0704    1.5522    0.0000 C   0  0  0  0  0  0  0  0  0  0  0  0
   -3.0485    1.3443    0.0000 C   0  0  0  0  0  0  0  0  0  0  0  0
   -3.7177    2.0874    0.0000 C   0  0  0  0  0  0  0  0  0  0  0  0
   -4.6958    1.8795    0.0000 C   0  0  0  0  0  0  0  0  0  0  0  0
   -5.3649    2.6226    0.0000 O   0  0  0  0  0  0  0  0  0  0  0  0
   -5.0048    0.9284    0.0000 C   0  0  0  0  0  0  0  0  0  0  0  0
   -4.4170    0.1194    0.0000 C   0  0  0  0  0  0  0  0  0  0  0  0
   -5.0048   -0.6896    0.0000 C   0  0  0  0  0  0  0  0  0  0  0  0
   -5.9559   -0.3806    0.0000 C   0  0  0  0  0  0  0  0  0  0  0  0
   -5.9559    0.6194    0.0000 S   0  0  0  0  0  0  0  0  0  0  0  0
   -0.4067    0.9135    0.0000 N   0  0  0  0  0  0  0  0  0  0  0  0
   -0.0000   -0.0000    0.0000 N   0  0  0  0  0  0  0  0  0  0  0  0
  1  2  1  0  0  0  0
  2 16  1  0  0  0  0
  2  3  2  0  0  0  0
  3  4  1  0  0  0  0
  4  5  1  0  0  0  0
  4 15  1  0  0  0  0
  5  6  1  0  0  0  0
  6  7  1  0  0  0  0
  7  8  1  0  0  0  0
  8  9  2  0  0  0  0
  8 10  1  0  0  0  0
 10 14  1  0  0  0  0
 10 11  2  0  0  0  0
 11 12  1  0  0  0  0
 12 13  2  0  0  0  0
 13 14  1  0  0  0  0
 15 16  2  0  0  0  0
M  END
$$$$
