
 OpenBabel03202621352D

 36 38  0  0  0  0  0  0  0  0999 V2000
   -6.7023   -1.4909    1.7590 O   0  5  0  0  0  0  0  0  0  0  0  0
   -7.1948   -0.6736    0.9387 C   0  0  0  0  0  0  0  0  0  0  0  0
   -8.4556   -0.6332    0.4526 C   0  0  0  0  0  0  0  0  0  0  0  0
   -9.0011    0.3337   -0.3594 O   0  0  0  0  0  0  0  0  0  0  0  0
   -8.3457    1.5764   -0.1071 C   0  0  0  0  0  0  0  0  0  0  0  0
   -6.8425    1.4913   -0.3293 C   0  0  0  0  0  0  0  0  0  0  0  0
   -6.2265    0.3197    0.3919 C   0  0  0  0  0  0  0  0  0  0  0  0
   -4.8839    0.1621    0.4370 C   0  0  0  0  0  0  0  0  0  0  0  0
   -3.8148    0.9648   -0.2368 C   0  0  0  0  0  0  0  0  0  0  0  0
   -2.8404    0.1259   -0.9059 O   0  0  0  0  0  0  0  0  0  0  0  0
   -1.8660   -0.5000    0.0000 C   0  0  0  0  0  0  0  0  0  0  0  0
   -2.4460   -1.9127    0.3362 C   0  0  0  0  0  0  0  0  0  0  0  0
   -3.2586   -2.6996   -0.6734 C   0  0  0  0  0  0  0  0  0  0  0  0
   -1.9459   -3.2438   -0.2035 C   0  0  0  0  0  0  0  0  0  0  0  0
   -0.8660   -0.5000    0.0000 C   0  0  0  0  0  0  0  0  0  0  0  0
   -0.5271   -0.4577   -1.5893 C   0  0  0  0  0  0  0  0  0  0  0  0
   -0.4630    0.7991   -0.7119 C   0  0  0  0  0  0  0  0  0  0  0  0
   -9.1789   -1.4066    0.6691 H   0  0  0  0  0  0  0  0  0  0  0  0
   -8.5859    1.9075    0.9138 H   0  0  0  0  0  0  0  0  0  0  0  0
   -8.7755    2.3214   -0.7866 H   0  0  0  0  0  0  0  0  0  0  0  0
   -6.3908    2.4297    0.0184 H   0  0  0  0  0  0  0  0  0  0  0  0
   -6.6424    1.3922   -1.4015 H   0  0  0  0  0  0  0  0  0  0  0  0
   -4.5333   -0.6910    1.0023 H   0  0  0  0  0  0  0  0  0  0  0  0
   -4.2386    1.6064   -1.0141 H   0  0  0  0  0  0  0  0  0  0  0  0
   -3.3146    1.6262    0.4794 H   0  0  0  0  0  0  0  0  0  0  0  0
   -2.1269   -0.0145    0.9558 H   0  0  0  0  0  0  0  0  0  0  0  0
   -2.7935   -1.9496    1.3692 H   0  0  0  0  0  0  0  0  0  0  0  0
   -4.1868   -3.1337   -0.3048 H   0  0  0  0  0  0  0  0  0  0  0  0
   -3.3281   -2.3332   -1.6918 H   0  0  0  0  0  0  0  0  0  0  0  0
   -1.1382   -3.2752   -0.9176 H   0  0  0  0  0  0  0  0  0  0  0  0
   -1.9748   -4.0909    0.4705 H   0  0  0  0  0  0  0  0  0  0  0  0
    0.2040   -0.5000    0.0000 H   0  0  0  0  0  0  0  0  0  0  0  0
   -0.1020   -1.4853   -1.7050 H   0  0  0  0  0  0  0  0  0  0  0  0
    0.3636   -0.2478   -2.2330 H   0  0  0  0  0  0  0  0  0  0  0  0
   -1.1500    1.6098   -0.9614 H   0  0  0  0  0  0  0  0  0  0  0  0
    0.5144    1.2622   -0.5354 H   0  0  0  0  0  0  0  0  0  0  0  0
  1  2  1  0  0  0  0
  2  7  1  0  0  0  0
  2  3  2  0  0  0  0
  3  4  1  0  0  0  0
  3 18  1  0  0  0  0
  4  5  1  0  0  0  0
  5  6  1  0  0  0  0
  5 19  1  0  0  0  0
  5 20  1  0  0  0  0
  6  7  1  0  0  0  0
  6 21  1  0  0  0  0
  6 22  1  0  0  0  0
  7  8  2  3  0  0  0
  8  9  1  0  0  0  0
  8 23  1  0  0  0  0
  9 10  1  0  0  0  0
  9 24  1  0  0  0  0
  9 25  1  0  0  0  0
 10 11  1  0  0  0  0
 11 12  1  0  0  0  0
 11 15  1  0  0  0  0
 11 26  1  0  0  0  0
 12 14  1  0  0  0  0
 12 13  1  0  0  0  0
 12 27  1  0  0  0  0
 13 14  1  0  0  0  0
 13 28  1  0  0  0  0
 13 29  1  0  0  0  0
 14 30  1  0  0  0  0
 14 31  1  0  0  0  0
 15 17  1  0  0  0  0
 15 16  1  0  0  0  0
 15 32  1  0  0  0  0
 16 17  1  0  0  0  0
 16 33  1  0  0  0  0
 16 34  1  0  0  0  0
 17 35  1  0  0  0  0
 17 36  1  0  0  0  0
M  CHG  1   1  -1
M  END
$$$$
