
 OpenBabel03202621302D

 23 23  0  0  0  0  0  0  0  0999 V2000
    1.7497    3.2393   -0.2753 C   0  0  0  0  0  0  0  0  0  0  0  0
    0.1788    2.4606    0.1675 S   0  0  0  0  0  0  0  0  0  0  0  0
    0.4523    0.6338    0.0437 C   0  0  0  0  0  0  0  0  0  0  0  0
    1.7321    0.0000    0.0000 C   0  0  0  0  0  0  0  0  0  0  0  0
    2.5981    0.5000    0.0000 C   0  0  0  0  0  0  0  0  0  0  0  0
    1.6227   -1.4287   -0.0447 C   0  0  0  0  0  0  0  0  0  0  0  0
    0.4282   -2.1647   -0.0573 C   0  0  0  0  0  0  0  0  0  0  0  0
   -0.7800   -1.5109    0.0375 C   0  0  0  0  0  0  0  0  0  0  0  0
   -1.9954   -2.2248   -0.0387 N   0  0  0  0  0  0  0  0  0  0  0  0
   -0.7804   -0.1075   -0.0037 C   0  0  0  0  0  0  0  0  0  0  0  0
   -2.0531    0.5425    0.0766 N   0  0  0  0  0  0  0  0  0  0  0  0
    2.1315    2.8577   -1.2252 H   0  0  0  0  0  0  0  0  0  0  0  0
    1.5791    4.3139   -0.3906 H   0  0  0  0  0  0  0  0  0  0  0  0
    2.4848    3.1094    0.5225 H   0  0  0  0  0  0  0  0  0  0  0  0
    3.1816   -0.0452   -0.7791 H   0  0  0  0  0  0  0  0  0  0  0  0
    2.9387    0.2825    1.0398 H   0  0  0  0  0  0  0  0  0  0  0  0
    3.5247    1.0350    0.0000 H   0  0  0  0  0  0  0  0  0  0  0  0
    2.5426   -2.0236   -0.0846 H   0  0  0  0  0  0  0  0  0  0  0  0
    0.4709   -3.2480   -0.1219 H   0  0  0  0  0  0  0  0  0  0  0  0
   -2.7171   -1.6966    0.4513 H   0  0  0  0  0  0  0  0  0  0  0  0
   -1.9159   -3.1668    0.3321 H   0  0  0  0  0  0  0  0  0  0  0  0
   -1.9375    1.5335   -0.1521 H   0  0  0  0  0  0  0  0  0  0  0  0
   -2.7015    0.0862   -0.5606 H   0  0  0  0  0  0  0  0  0  0  0  0
  1  2  1  0  0  0  0
  1 12  1  0  0  0  0
  1 13  1  0  0  0  0
  1 14  1  0  0  0  0
  2  3  1  0  0  0  0
  3 10  2  0  0  0  0
  3  4  1  0  0  0  0
  4  5  1  0  0  0  0
  4  6  2  0  0  0  0
  5 15  1  0  0  0  0
  5 16  1  0  0  0  0
  5 17  1  0  0  0  0
  6  7  1  0  0  0  0
  6 18  1  0  0  0  0
  7  8  2  0  0  0  0
  7 19  1  0  0  0  0
  8  9  1  0  0  0  0
  8 10  1  0  0  0  0
  9 20  1  0  0  0  0
  9 21  1  0  0  0  0
 10 11  1  0  0  0  0
 11 22  1  0  0  0  0
 11 23  1  0  0  0  0
M  END
$$$$
