
 OpenBabel03202621282D

 38 40  0  0  1  0  0  0  0  0999 V2000
    1.7495   -5.8257    0.0000 C   0  0  0  0  0  0  0  0  0  0  0  0
    2.7276   -5.6178    0.0000 C   0  0  0  0  0  0  0  0  0  0  0  0
    3.3967   -6.3610    0.0000 O   0  0  0  0  0  0  0  0  0  0  0  0
    3.0366   -4.6668    0.0000 C   0  0  0  0  0  0  0  0  0  0  0  0
    2.3675   -3.9236    0.0000 C   0  0  0  0  0  0  0  0  0  0  0  0
    1.3894   -4.1315    0.0000 O   0  0  0  0  0  0  0  0  0  0  0  0
    2.6765   -2.9726    0.0000 C   0  0  2  0  0  0  0  0  0  0  0  0
    3.6547   -2.7647    0.0000 O   0  0  0  0  0  0  0  0  0  0  0  0
    2.0074   -2.2294    0.0000 C   0  0  0  0  0  0  0  0  0  0  0  0
    1.0292   -2.4373    0.0000 O   0  0  0  0  0  0  0  0  0  0  0  0
    2.3164   -1.2784    0.0000 C   0  0  2  0  0  0  0  0  0  0  0  0
    3.2946   -1.0705    0.0000 C   0  0  0  0  0  0  0  0  0  0  0  0
    3.6036   -0.1194    0.0000 C   0  0  0  0  0  0  0  0  0  0  0  0
    4.5817    0.0885    0.0000 O   0  0  0  0  0  0  0  0  0  0  0  0
    5.2509   -0.6546    0.0000 C   0  0  0  0  0  0  0  0  0  0  0  0
    4.9418   -1.6057    0.0000 S   0  0  0  0  0  0  0  0  0  0  0  0
    6.2290   -0.4467    0.0000 N   0  0  0  0  0  0  0  0  0  0  0  0
    6.8981   -1.1899    0.0000 C   0  0  0  0  0  0  0  0  0  0  0  0
    7.8763   -0.9820    0.0000 C   0  0  0  0  0  0  0  0  0  0  0  0
    8.5454   -1.7251    0.0000 N   0  0  0  0  0  0  0  0  0  0  0  0
    9.5399   -1.6206    0.0000 C   0  0  0  0  0  0  0  0  0  0  0  0
   10.0399   -0.7546    0.0000 C   0  0  0  0  0  0  0  0  0  0  0  0
    9.9467   -2.5341    0.0000 C   0  0  0  0  0  0  0  0  0  0  0  0
    9.2035   -3.2033    0.0000 C   0  0  0  0  0  0  0  0  0  0  0  0
    9.2035   -4.2033    0.0000 C   0  0  0  0  0  0  0  0  0  0  0  0
    8.3375   -4.7033    0.0000 C   0  0  0  0  0  0  0  0  0  0  0  0
    7.4715   -4.2033    0.0000 C   0  0  0  0  0  0  0  0  0  0  0  0
    7.4715   -3.2033    0.0000 C   0  0  0  0  0  0  0  0  0  0  0  0
    8.3375   -2.7033    0.0000 C   0  0  0  0  0  0  0  0  0  0  0  0
    1.6473   -0.5352    0.0000 C   0  0  0  0  0  0  0  0  0  0  0  0
    1.9563    0.4158    0.0000 O   0  0  0  0  0  0  0  0  0  0  0  0
    0.6691   -0.7431    0.0000 C   0  0  0  0  0  0  0  0  0  0  0  0
    0.3601   -1.6942    0.0000 C   0  0  0  0  0  0  0  0  0  0  0  0
   -0.6180   -1.9021    0.0000 C   0  0  0  0  0  0  0  0  0  0  0  0
   -1.2872   -1.1590    0.0000 C   0  0  0  0  0  0  0  0  0  0  0  0
   -0.9781   -0.2079    0.0000 C   0  0  0  0  0  0  0  0  0  0  0  0
    0.0000    0.0000    0.0000 C   0  0  0  0  0  0  0  0  0  0  0  0
    0.3090    0.9511    0.0000 O   0  0  0  0  0  0  0  0  0  0  0  0
  1  2  1  0  0  0  0
  2  3  2  0  0  0  0
  2  4  1  0  0  0  0
  4  5  1  0  0  0  0
  5  6  2  0  0  0  0
  5  7  1  0  0  0  0
  7  8  1  1  0  0  0
  7  9  1  0  0  0  0
  9 10  2  0  0  0  0
  9 11  1  0  0  0  0
 11 12  1  1  0  0  0
 11 30  1  0  0  0  0
 12 13  1  0  0  0  0
 13 14  1  0  0  0  0
 14 15  1  0  0  0  0
 15 16  2  0  0  0  0
 15 17  1  0  0  0  0
 17 18  1  0  0  0  0
 18 19  1  0  0  0  0
 19 20  1  0  0  0  0
 20 29  1  0  0  0  0
 20 21  1  0  0  0  0
 21 22  1  0  0  0  0
 21 23  2  0  0  0  0
 23 24  1  0  0  0  0
 24 29  2  0  0  0  0
 24 25  1  0  0  0  0
 25 26  2  0  0  0  0
 26 27  1  0  0  0  0
 27 28  2  0  0  0  0
 28 29  1  0  0  0  0
 30 31  2  0  0  0  0
 30 32  1  0  0  0  0
 32 37  2  0  0  0  0
 32 33  1  0  0  0  0
 33 34  2  0  0  0  0
 34 35  1  0  0  0  0
 35 36  2  0  0  0  0
 36 37  1  0  0  0  0
 37 38  1  0  0  0  0
M  END
$$$$
