
 OpenBabel03202621332D

 21 22  0  0  0  0  0  0  0  0999 V2000
   -0.2788   -1.7601    0.0000 C   0  0  0  0  0  0  0  0  0  0  0  0
   -0.5878   -0.8090    0.0000 C   0  0  0  0  0  0  0  0  0  0  0  0
   -1.6761   -0.2496   -0.6578 C   0  0  0  0  0  0  0  0  0  0  0  0
   -1.8865    0.9635   -0.0658 N   0  0  0  0  0  0  0  0  0  0  0  0
   -3.0113    1.8774   -0.2052 C   0  0  0  0  0  0  0  0  0  0  0  0
   -4.3639    1.2276   -0.0587 C   0  0  0  0  0  0  0  0  0  0  0  0
   -4.7423    0.0120    0.4878 C   0  0  0  0  0  0  0  0  0  0  0  0
   -6.1486   -0.2118    0.4124 C   0  0  0  0  0  0  0  0  0  0  0  0
   -6.8107    0.8539   -0.1456 C   0  0  0  0  0  0  0  0  0  0  0  0
   -5.7437    2.1079   -0.5974 S   0  0  0  0  0  0  0  0  0  0  0  0
   -0.8670    1.2692    0.7485 N   0  0  0  0  0  0  0  0  0  0  0  0
   -0.0826    0.2048    0.8113 N   0  0  0  0  0  0  0  0  0  0  0  0
   -0.4976   -2.0285    1.0612 H   0  0  0  0  0  0  0  0  0  0  0  0
    0.8159   -1.6051   -0.1492 H   0  0  0  0  0  0  0  0  0  0  0  0
    0.0518   -2.7777    0.0000 H   0  0  0  0  0  0  0  0  0  0  0  0
   -2.3785   -0.6628   -1.3689 H   0  0  0  0  0  0  0  0  0  0  0  0
   -2.9011    2.6523    0.5646 H   0  0  0  0  0  0  0  0  0  0  0  0
   -2.8988    2.3462   -1.1887 H   0  0  0  0  0  0  0  0  0  0  0  0
   -4.0483   -0.7041    0.9143 H   0  0  0  0  0  0  0  0  0  0  0  0
   -6.6486   -1.1088    0.7592 H   0  0  0  0  0  0  0  0  0  0  0  0
   -7.8753    0.9604   -0.3100 H   0  0  0  0  0  0  0  0  0  0  0  0
  1  2  1  0  0  0  0
  1 13  1  0  0  0  0
  1 14  1  0  0  0  0
  1 15  1  0  0  0  0
  2 12  1  0  0  0  0
  2  3  2  0  0  0  0
  3  4  1  0  0  0  0
  3 16  1  0  0  0  0
  4  5  1  0  0  0  0
  4 11  1  0  0  0  0
  5  6  1  0  0  0  0
  5 17  1  0  0  0  0
  5 18  1  0  0  0  0
  6 10  1  0  0  0  0
  6  7  2  0  0  0  0
  7  8  1  0  0  0  0
  7 19  1  0  0  0  0
  8  9  2  0  0  0  0
  8 20  1  0  0  0  0
  9 10  1  0  0  0  0
  9 21  1  0  0  0  0
 11 12  2  0  0  0  0
M  END
$$$$
