
 OpenBabel03202621282D

 21 23  0  0  1  0  0  0  0  0999 V2000
    0.8695    1.5292    0.0000 C   0  0  0  0  0  0  0  0  0  0  0  0
    0.8695    0.5020    0.0000 C   0  0  0  0  0  0  0  0  0  0  0  0
   -0.0201    1.0156    0.0000 C   0  0  0  0  0  0  0  0  0  0  0  0
    1.7391   -0.0001    0.0000 C   0  0  1  0  0  0  0  0  0  0  0  0
    1.7391   -1.0043    0.0000 C   0  0  0  0  0  0  0  0  0  0  0  0
    0.8696   -1.5062    0.0000 C   0  0  0  0  0  0  0  0  0  0  0  0
   -0.0000   -1.0042    0.0000 C   0  0  1  0  0  0  0  0  0  0  0  0
    1.0899   -0.8840    0.0000 C   0  0  0  0  0  0  0  0  0  0  0  0
    0.0000   -0.0000    0.0000 C   0  0  1  0  0  0  0  0  0  0  0  0
   -0.8896    0.5136    0.0000 C   0  0  0  0  0  0  0  0  0  0  0  0
   -0.8695   -0.5020    0.0000 N   0  0  0  0  0  0  0  0  0  0  0  0
   -1.4163    0.3400    0.0000 C   0  0  0  0  0  0  0  0  0  0  0  0
   -0.9605    1.2346    0.0000 S   0  0  0  0  0  0  0  0  0  0  0  0
   -2.4189    0.2875    0.0000 O   0  0  0  0  0  0  0  0  0  0  0  0
   -2.9657    1.1295    0.0000 C   0  0  0  0  0  0  0  0  0  0  0  0
   -3.9683    1.0770    0.0000 C   0  0  0  0  0  0  0  0  0  0  0  0
   -4.5151    1.9190    0.0000 O   0  0  0  0  0  0  0  0  0  0  0  0
   -4.0191    2.5131    0.0000 C   0  0  0  0  0  0  0  0  0  0  0  0
   -3.2454    2.4957    0.0000 C   0  0  0  0  0  0  0  0  0  0  0  0
   -2.7766    1.8800    0.0000 C   0  0  0  0  0  0  0  0  0  0  0  0
   -1.7930    2.0814    0.0000 O   0  0  0  0  0  0  0  0  0  0  0  0
  1  2  1  0  0  0  0
  2  9  1  0  0  0  0
  2  3  1  0  0  0  0
  2  4  1  0  0  0  0
  4  5  1  1  0  0  0
  4  8  1  0  0  0  0
  5  6  1  0  0  0  0
  7  6  1  6  0  0  0
  7  8  1  0  0  0  0
  7  9  1  0  0  0  0
  9 10  1  1  0  0  0
  9 11  1  0  0  0  0
 11 12  1  0  0  0  0
 12 13  2  0  0  0  0
 12 14  1  0  0  0  0
 14 15  1  0  0  0  0
 15 20  1  0  0  0  0
 15 16  2  0  0  0  0
 16 17  1  0  0  0  0
 17 18  1  0  0  0  0
 18 19  1  0  0  0  0
 19 20  1  0  0  0  0
 20 21  2  0  0  0  0
M  END
$$$$
