
 OpenBabel03202621402D

 31 32  0  0  1  0  0  0  0  0999 V2000
   -3.9718   -0.8800    0.4351 N   0  0  0  0  0  0  0  0  0  0  0  0
   -3.8058    0.4890    0.1394 C   0  0  0  0  0  0  0  0  0  0  0  0
   -4.9432    1.3096    0.1948 C   0  0  0  0  0  0  0  0  0  0  0  0
   -4.8450    2.6883    0.0311 C   0  0  0  0  0  0  0  0  0  0  0  0
   -3.5958    3.2686   -0.1431 C   0  0  0  0  0  0  0  0  0  0  0  0
   -2.4472    2.4716   -0.1472 C   0  0  0  0  0  0  0  0  0  0  0  0
   -2.5234    1.0770    0.0061 C   0  0  0  0  0  0  0  0  0  0  0  0
   -1.2880    0.1875    0.0310 C   0  0  0  0  0  0  0  0  0  0  0  0
    0.0926    0.6677   -0.4723 C   0  0  3  0  0  0  0  0  0  0  0  0
   -0.0287    1.3685   -1.7162 O   0  0  0  0  0  0  0  0  0  0  0  0
    0.8529    1.5324    0.5422 C   0  0  0  0  0  0  0  0  0  0  0  0
    2.2090    1.6855    0.0944 O   0  0  0  0  0  0  0  0  0  0  0  0
    2.9766    0.4821    0.1654 C   0  0  0  0  0  0  0  0  0  0  0  0
    2.1548   -0.7937    0.1305 C   0  0  0  0  0  0  0  0  0  0  0  0
    0.9487   -0.5901   -0.7448 C   0  0  0  0  0  0  0  0  0  0  0  0
    0.6541   -1.4311   -1.5970 O   0  0  0  0  0  0  0  0  0  0  0  0
   -4.9042   -1.2164    0.2117 H   0  0  0  0  0  0  0  0  0  0  0  0
   -3.2705   -1.4782    0.0119 H   0  0  0  0  0  0  0  0  0  0  0  0
   -5.9246    0.8700    0.3529 H   0  0  0  0  0  0  0  0  0  0  0  0
   -5.7400    3.3034    0.0458 H   0  0  0  0  0  0  0  0  0  0  0  0
   -3.5108    4.3451   -0.2713 H   0  0  0  0  0  0  0  0  0  0  0  0
   -1.4963    2.9736   -0.2909 H   0  0  0  0  0  0  0  0  0  0  0  0
   -1.1744   -0.1872    1.0589 H   0  0  0  0  0  0  0  0  0  0  0  0
   -1.5422   -0.6806   -0.5882 H   0  0  0  0  0  0  0  0  0  0  0  0
    0.8564    1.7002   -1.9439 H   0  0  0  0  0  0  0  0  0  0  0  0
    0.4426    2.5434    0.5942 H   0  0  0  0  0  0  0  0  0  0  0  0
    0.8522    1.1167    1.5575 H   0  0  0  0  0  0  0  0  0  0  0  0
    3.5803    0.5119    1.0787 H   0  0  0  0  0  0  0  0  0  0  0  0
    3.6760    0.5016   -0.6782 H   0  0  0  0  0  0  0  0  0  0  0  0
    2.7579   -1.6291   -0.2391 H   0  0  0  0  0  0  0  0  0  0  0  0
    1.7980   -1.0615    1.1313 H   0  0  0  0  0  0  0  0  0  0  0  0
  1  2  1  0  0  0  0
  1 17  1  0  0  0  0
  1 18  1  0  0  0  0
  2  7  2  0  0  0  0
  2  3  1  0  0  0  0
  3  4  2  0  0  0  0
  3 19  1  0  0  0  0
  4  5  1  0  0  0  0
  4 20  1  0  0  0  0
  5  6  2  0  0  0  0
  5 21  1  0  0  0  0
  6  7  1  0  0  0  0
  6 22  1  0  0  0  0
  7  8  1  0  0  0  0
  8  9  1  0  0  0  0
  8 23  1  0  0  0  0
  8 24  1  0  0  0  0
  9 15  1  0  0  0  0
  9 10  1  0  0  0  0
  9 11  1  0  0  0  0
 10 25  1  0  0  0  0
 11 12  1  0  0  0  0
 11 26  1  0  0  0  0
 11 27  1  0  0  0  0
 12 13  1  0  0  0  0
 13 14  1  0  0  0  0
 13 28  1  0  0  0  0
 13 29  1  0  0  0  0
 14 15  1  0  0  0  0
 14 30  1  0  0  0  0
 14 31  1  0  0  0  0
 15 16  2  0  0  0  0
M  END
$$$$
