
 OpenBabel03202621312D

 17 16  0  0  0  0  0  0  0  0999 V2000
    2.3962    2.0572   -1.0018 C   0  0  0  0  0  0  0  0  0  0  0  0
    2.5000    0.8660    0.0000 C   0  0  0  0  0  0  0  0  0  0  0  0
    2.5000   -0.1340    0.0000 C   0  0  0  0  0  0  0  0  0  0  0  0
    3.3660    0.3660    0.0000 C   0  0  0  0  0  0  0  0  0  0  0  0
    1.8021    1.4124    1.1449 O   0  0  0  0  0  0  0  0  0  0  0  0
    0.4338    1.3854    1.0242 C   0  0  0  0  0  0  0  0  0  0  0  0
   -0.3199    1.8889    1.8420 O   0  0  0  0  0  0  0  0  0  0  0  0
    3.1168    2.0906   -1.8285 H   0  0  0  0  0  0  0  0  0  0  0  0
    1.3968    2.1469   -1.4336 H   0  0  0  0  0  0  0  0  0  0  0  0
    2.5768    2.9944   -0.4436 H   0  0  0  0  0  0  0  0  0  0  0  0
    1.6868   -0.3311   -0.8167 H   0  0  0  0  0  0  0  0  0  0  0  0
    1.9168   -0.4999    0.9685 H   0  0  0  0  0  0  0  0  0  0  0  0
    2.5000   -1.2040    0.0000 H   0  0  0  0  0  0  0  0  0  0  0  0
    3.9163    0.6244   -1.0203 H   0  0  0  0  0  0  0  0  0  0  0  0
    3.9798    1.0213    0.7462 H   0  0  0  0  0  0  0  0  0  0  0  0
    4.2926   -0.1690    0.0000 H   0  0  0  0  0  0  0  0  0  0  0  0
    0.0830    0.8372    0.1386 H   0  0  0  0  0  0  0  0  0  0  0  0
  1  2  1  0  0  0  0
  1  8  1  0  0  0  0
  1  9  1  0  0  0  0
  1 10  1  0  0  0  0
  2  3  1  0  0  0  0
  2  4  1  0  0  0  0
  2  5  1  0  0  0  0
  3 11  1  0  0  0  0
  3 12  1  0  0  0  0
  3 13  1  0  0  0  0
  4 14  1  0  0  0  0
  4 15  1  0  0  0  0
  4 16  1  0  0  0  0
  5  6  1  0  0  0  0
  6  7  2  0  0  0  0
  6 17  1  0  0  0  0
M  END
$$$$
