
 OpenBabel03202621382D

 54 56  0  0  1  0  0  0  0  0999 V2000
    0.0000    6.5397    0.0000 C   0  0  0  0  0  0  0  0  0  0  0  0
   -0.8413    6.0540    0.0000 C   0  0  0  0  0  0  0  0  0  0  0  0
   -1.7013    6.1299    0.9038 O   0  0  0  0  0  0  0  0  0  0  0  0
   -1.2915    5.2433   -1.1963 C   0  0  0  0  0  0  0  0  0  0  0  0
   -0.2063    4.5079   -1.9355 C   0  0  0  0  0  0  0  0  0  0  0  0
    0.1798    4.9383   -3.0291 O   0  0  0  0  0  0  0  0  0  0  0  0
    0.4253    3.2972   -1.2614 C   0  0  2  0  0  0  0  0  0  0  0  0
    0.8313    3.6927    0.0402 O   0  0  0  0  0  0  0  0  0  0  0  0
   -0.4196    2.0184   -1.3208 C   0  0  0  0  0  0  0  0  0  0  0  0
   -1.0283    1.7390   -2.3661 O   0  0  0  0  0  0  0  0  0  0  0  0
   -0.5126    1.1006   -0.0735 C   0  0  2  0  0  0  0  0  0  0  0  0
   -2.0490    0.8661    0.1555 C   0  0  0  0  0  0  0  0  0  0  0  0
   -2.9173    2.1036    0.3814 C   0  0  0  0  0  0  0  0  0  0  0  0
   -3.3976    2.6284   -0.8442 O   0  0  0  0  0  0  0  0  0  0  0  0
    0.3708   -0.2445   -0.2123 C   0  0  3  0  0  0  0  0  0  0  0  0
    0.7833   -0.3608   -1.6097 O   0  0  0  0  0  0  0  0  0  0  0  0
    1.7640   -0.3273    0.5463 C   0  0  0  0  0  0  0  0  0  0  0  0
    2.1138   -1.5109    1.2596 C   0  0  0  0  0  0  0  0  0  0  0  0
    3.4116   -1.7725    1.7002 C   0  0  0  0  0  0  0  0  0  0  0  0
    4.4003   -0.8388    1.4783 C   0  0  0  0  0  0  0  0  0  0  0  0
    4.0725    0.3505    0.8322 C   0  0  0  0  0  0  0  0  0  0  0  0
    2.7819    0.6483    0.3313 C   0  0  0  0  0  0  0  0  0  0  0  0
    2.6121    1.7113   -0.3362 O   0  5  0  0  0  0  0  0  0  0  0  0
   -0.4738   -1.5159    0.0851 C   0  0  0  0  0  0  0  0  0  0  0  0
   -1.1556   -1.6431    1.2816 N   0  0  0  0  0  0  0  0  0  0  0  0
   -1.8656   -2.7552    1.5685 C   0  0  0  0  0  0  0  0  0  0  0  0
   -1.9186   -3.8849    0.7726 C   0  0  0  0  0  0  0  0  0  0  0  0
   -1.1566   -3.8344   -0.3962 C   0  0  0  0  0  0  0  0  0  0  0  0
   -0.8314   -4.7250   -1.4425 C   0  0  0  0  0  0  0  0  0  0  0  0
   -0.0019   -4.1940   -2.3452 N   0  0  0  0  0  0  0  0  0  0  0  0
    0.1892   -2.9405   -1.8817 N   0  0  0  0  0  0  0  0  0  0  0  0
   -0.4721   -2.6704   -0.7121 C   0  0  0  0  0  0  0  0  0  0  0  0
    0.3579    6.2492    1.0174 H   0  0  0  0  0  0  0  0  0  0  0  0
   -0.4260    7.5708   -0.0455 H   0  0  0  0  0  0  0  0  0  0  0  0
    0.9267    7.0747    0.0000 H   0  0  0  0  0  0  0  0  0  0  0  0
   -1.7922    5.9199   -1.9010 H   0  0  0  0  0  0  0  0  0  0  0  0
   -2.0348    4.5198   -0.8743 H   0  0  0  0  0  0  0  0  0  0  0  0
    1.3219    3.1088   -1.8641 H   0  0  0  0  0  0  0  0  0  0  0  0
    1.6090    3.0877    0.2091 H   0  0  0  0  0  0  0  0  0  0  0  0
   -0.1703    1.6423    0.8145 H   0  0  0  0  0  0  0  0  0  0  0  0
   -2.4646    0.2778   -0.6701 H   0  0  0  0  0  0  0  0  0  0  0  0
   -2.1763    0.3121    1.0857 H   0  0  0  0  0  0  0  0  0  0  0  0
   -3.8029    1.8129    0.9579 H   0  0  0  0  0  0  0  0  0  0  0  0
   -2.3862    2.8812    0.9375 H   0  0  0  0  0  0  0  0  0  0  0  0
   -4.0243    3.3384   -0.6248 H   0  0  0  0  0  0  0  0  0  0  0  0
    1.5715    0.2321   -1.6521 H   0  0  0  0  0  0  0  0  0  0  0  0
    1.3883   -2.2968    1.4427 H   0  0  0  0  0  0  0  0  0  0  0  0
    3.6448   -2.7160    2.1813 H   0  0  0  0  0  0  0  0  0  0  0  0
    5.4248   -1.0255    1.7789 H   0  0  0  0  0  0  0  0  0  0  0  0
    4.8713    1.0734    0.6567 H   0  0  0  0  0  0  0  0  0  0  0  0
   -2.4144   -2.7129    2.5057 H   0  0  0  0  0  0  0  0  0  0  0  0
   -2.4940   -4.7543    1.0576 H   0  0  0  0  0  0  0  0  0  0  0  0
   -1.1530   -5.7492   -1.5726 H   0  0  0  0  0  0  0  0  0  0  0  0
    0.7978   -2.2916   -2.3743 H   0  0  0  0  0  0  0  0  0  0  0  0
  1  2  1  0  0  0  0
  1 33  1  0  0  0  0
  1 34  1  0  0  0  0
  1 35  1  0  0  0  0
  2  3  2  0  0  0  0
  2  4  1  0  0  0  0
  4  5  1  0  0  0  0
  4 36  1  0  0  0  0
  4 37  1  0  0  0  0
  5  6  2  0  0  0  0
  5  7  1  0  0  0  0
  7  8  1  0  0  0  0
  7  9  1  0  0  0  0
  7 38  1  1  0  0  0
  8 39  1  0  0  0  0
  9 10  2  0  0  0  0
  9 11  1  0  0  0  0
 11 12  1  0  0  0  0
 11 15  1  0  0  0  0
 11 40  1  6  0  0  0
 12 13  1  0  0  0  0
 12 41  1  0  0  0  0
 12 42  1  0  0  0  0
 13 14  1  0  0  0  0
 13 43  1  0  0  0  0
 13 44  1  0  0  0  0
 14 45  1  0  0  0  0
 15 16  1  0  0  0  0
 15 17  1  0  0  0  0
 15 24  1  0  0  0  0
 16 46  1  0  0  0  0
 17 22  2  0  0  0  0
 17 18  1  0  0  0  0
 18 19  2  0  0  0  0
 18 47  1  0  0  0  0
 19 20  1  0  0  0  0
 19 48  1  0  0  0  0
 20 21  2  0  0  0  0
 20 49  1  0  0  0  0
 21 22  1  0  0  0  0
 21 50  1  0  0  0  0
 22 23  1  0  0  0  0
 24 32  2  0  0  0  0
 24 25  1  0  0  0  0
 25 26  2  0  0  0  0
 26 27  1  0  0  0  0
 26 51  1  0  0  0  0
 27 28  2  0  0  0  0
 27 52  1  0  0  0  0
 28 32  1  0  0  0  0
 28 29  1  0  0  0  0
 29 30  2  0  0  0  0
 29 53  1  0  0  0  0
 30 31  1  0  0  0  0
 31 32  1  0  0  0  0
 31 54  1  0  0  0  0
M  CHG  1  23  -1
M  END
$$$$
