
 OpenBabel03202621302D

 22 21  0  0  0  0  0  0  0  0999 V2000
    6.9282    0.0000    0.0000 C   0  0  0  0  0  0  0  0  0  0  0  0
    6.9282    1.0000    0.0000 C   0  0  0  0  0  0  0  0  0  0  0  0
    5.7489    1.8632    0.4983 C   0  0  0  0  0  0  0  0  0  0  0  0
    4.6211    1.0474    0.9035 C   0  0  0  0  0  0  0  0  0  0  0  0
    3.6927    0.2927    0.8769 C   0  0  0  0  0  0  0  0  0  0  0  0
    2.5375   -0.4733    0.4377 C   0  0  0  0  0  0  0  0  0  0  0  0
    1.5127    0.5382   -0.0484 C   0  0  0  0  0  0  0  0  0  0  0  0
    0.2939   -0.1265   -0.3655 O   0  0  0  0  0  0  0  0  0  0  0  0
   -0.7769    0.6901   -0.3643 C   0  0  0  0  0  0  0  0  0  0  0  0
   -1.9220    0.3018   -0.5713 O   0  0  0  0  0  0  0  0  0  0  0  0
    6.2559   -0.1819   -0.8750 H   0  0  0  0  0  0  0  0  0  0  0  0
    7.9771   -0.1949   -0.3430 H   0  0  0  0  0  0  0  0  0  0  0  0
    6.9282   -1.0700    0.0000 H   0  0  0  0  0  0  0  0  0  0  0  0
    7.7240    1.3956    0.6643 H   0  0  0  0  0  0  0  0  0  0  0  0
    7.2292    1.5112   -0.9397 H   0  0  0  0  0  0  0  0  0  0  0  0
    6.0642    2.5422    1.3000 H   0  0  0  0  0  0  0  0  0  0  0  0
    5.4212    2.5113   -0.3289 H   0  0  0  0  0  0  0  0  0  0  0  0
    2.8292   -1.1304   -0.3914 H   0  0  0  0  0  0  0  0  0  0  0  0
    2.1422   -1.1121    1.2276 H   0  0  0  0  0  0  0  0  0  0  0  0
    1.8831    1.0534   -0.9458 H   0  0  0  0  0  0  0  0  0  0  0  0
    1.3508    1.2959    0.7328 H   0  0  0  0  0  0  0  0  0  0  0  0
   -0.5317    1.7407   -0.1660 H   0  0  0  0  0  0  0  0  0  0  0  0
  1  2  1  0  0  0  0
  1 11  1  0  0  0  0
  1 12  1  0  0  0  0
  1 13  1  0  0  0  0
  2  3  1  0  0  0  0
  2 14  1  0  0  0  0
  2 15  1  0  0  0  0
  3  4  1  0  0  0  0
  3 16  1  0  0  0  0
  3 17  1  0  0  0  0
  4  5  3  0  0  0  0
  5  6  1  0  0  0  0
  6  7  1  0  0  0  0
  6 18  1  0  0  0  0
  6 19  1  0  0  0  0
  7  8  1  0  0  0  0
  7 20  1  0  0  0  0
  7 21  1  0  0  0  0
  8  9  1  0  0  0  0
  9 10  2  0  0  0  0
  9 22  1  0  0  0  0
M  END
$$$$
