
 OpenBabel03202621302D

 22 22  0  0  0  0  0  0  0  0999 V2000
    4.5714    0.4954    0.0000 C   0  0  0  0  0  0  0  0  0  0  0  0
    4.1646    1.4090    0.0000 S   0  0  0  0  0  0  0  0  0  0  0  0
    2.8128    1.9913   -0.8330 C   0  0  0  0  0  0  0  0  0  0  0  0
    2.6740    1.9422   -2.0416 O   0  0  0  0  0  0  0  0  0  0  0  0
    1.8950    2.4189    0.0884 N   0  0  0  0  0  0  0  0  0  0  0  0
    0.5266    2.1534   -0.2353 C   0  0  0  0  0  0  0  0  0  0  0  0
    0.3738    0.6871   -0.1216 C   0  0  0  0  0  0  0  0  0  0  0  0
    0.9357   -0.4168   -0.7434 C   0  0  0  0  0  0  0  0  0  0  0  0
    0.5000   -1.5388    0.0000 C   0  0  0  0  0  0  0  0  0  0  0  0
    0.5000   -2.5388    0.0000 C   0  0  0  0  0  0  0  0  0  0  0  0
   -0.2848   -1.0712    1.0019 N   0  0  0  0  0  0  0  0  0  0  0  0
   -0.3730    0.2754    0.9135 O   0  0  0  0  0  0  0  0  0  0  0  0
    4.4990    0.2375   -1.0760 H   0  0  0  0  0  0  0  0  0  0  0  0
    5.6219    0.7759    0.2055 H   0  0  0  0  0  0  0  0  0  0  0  0
    5.0066   -0.4821    0.0000 H   0  0  0  0  0  0  0  0  0  0  0  0
    2.1701    2.2515    1.0446 H   0  0  0  0  0  0  0  0  0  0  0  0
    0.2801    2.5134   -1.2367 H   0  0  0  0  0  0  0  0  0  0  0  0
   -0.0959    2.6798    0.4990 H   0  0  0  0  0  0  0  0  0  0  0  0
    1.5891   -0.4083   -1.6042 H   0  0  0  0  0  0  0  0  0  0  0  0
    0.1508   -2.7226   -1.0449 H   0  0  0  0  0  0  0  0  0  0  0  0
    1.6013   -2.7143    0.0515 H   0  0  0  0  0  0  0  0  0  0  0  0
    0.5000   -3.6088    0.0000 H   0  0  0  0  0  0  0  0  0  0  0  0
  1  2  1  0  0  0  0
  1 13  1  0  0  0  0
  1 14  1  0  0  0  0
  1 15  1  0  0  0  0
  2  3  1  0  0  0  0
  3  4  2  0  0  0  0
  3  5  1  0  0  0  0
  5  6  1  0  0  0  0
  5 16  1  0  0  0  0
  6  7  1  0  0  0  0
  6 17  1  0  0  0  0
  6 18  1  0  0  0  0
  7 12  1  0  0  0  0
  7  8  2  0  0  0  0
  8  9  1  0  0  0  0
  8 19  1  0  0  0  0
  9 10  1  0  0  0  0
  9 11  2  0  0  0  0
 10 20  1  0  0  0  0
 10 21  1  0  0  0  0
 10 22  1  0  0  0  0
 11 12  1  0  0  0  0
M  END
$$$$
