
 OpenBabel03202621372D

 29 30  0  0  0  0  0  0  0  0999 V2000
    1.5878    0.8090    0.0000 C   0  0  0  0  0  0  0  0  0  0  0  0
    1.0000    0.0000    0.0000 C   0  0  0  0  0  0  0  0  0  0  0  0
    0.8053   -1.0620    0.8734 C   0  0  0  0  0  0  0  0  0  0  0  0
    0.3932   -2.0840    0.0523 N   0  0  0  0  0  0  0  0  0  0  0  0
    0.4724   -3.5101    0.2389 C   0  0  0  0  0  0  0  0  0  0  0  0
    1.8008   -4.2500    0.0711 C   0  0  0  0  0  0  0  0  0  0  0  0
    1.7268   -5.4828    0.1785 O   0  0  0  0  0  0  0  0  0  0  0  0
    3.0604   -3.6816   -0.1459 N   0  0  0  0  0  0  0  0  0  0  0  0
    3.3705   -2.2638   -0.0385 C   0  0  0  0  0  0  0  0  0  0  0  0
    4.8138   -1.8341   -0.2916 C   0  0  0  0  0  0  0  0  0  0  0  0
    5.7235   -2.7080    0.3690 O   0  0  0  0  0  0  0  0  0  0  0  0
    5.5842   -4.0126   -0.1985 C   0  0  0  0  0  0  0  0  0  0  0  0
    4.1958   -4.5975    0.0697 C   0  0  0  0  0  0  0  0  0  0  0  0
   -0.1085   -1.5987   -1.0850 N   0  0  0  0  0  0  0  0  0  0  0  0
    0.2549   -0.3344   -1.1415 N   0  0  0  0  0  0  0  0  0  0  0  0
    2.2038    0.6176   -0.9112 H   0  0  0  0  0  0  0  0  0  0  0  0
    0.8230    1.6014   -0.1788 H   0  0  0  0  0  0  0  0  0  0  0  0
    2.2167    1.6746    0.0000 H   0  0  0  0  0  0  0  0  0  0  0  0
    1.1619   -1.2543    1.8754 H   0  0  0  0  0  0  0  0  0  0  0  0
    0.0799   -3.7216    1.2386 H   0  0  0  0  0  0  0  0  0  0  0  0
   -0.2219   -3.9585   -0.4879 H   0  0  0  0  0  0  0  0  0  0  0  0
    2.7581   -1.7454   -0.7692 H   0  0  0  0  0  0  0  0  0  0  0  0
    3.1275   -1.9818    0.9884 H   0  0  0  0  0  0  0  0  0  0  0  0
    5.0404   -1.8016   -1.3622 H   0  0  0  0  0  0  0  0  0  0  0  0
    4.9640   -0.8194    0.1006 H   0  0  0  0  0  0  0  0  0  0  0  0
    5.7912   -3.9568   -1.2741 H   0  0  0  0  0  0  0  0  0  0  0  0
    6.3487   -4.6547    0.2499 H   0  0  0  0  0  0  0  0  0  0  0  0
    4.0553   -5.4891   -0.5526 H   0  0  0  0  0  0  0  0  0  0  0  0
    4.1418   -4.9117    1.1195 H   0  0  0  0  0  0  0  0  0  0  0  0
  1  2  1  0  0  0  0
  1 16  1  0  0  0  0
  1 17  1  0  0  0  0
  1 18  1  0  0  0  0
  2 15  1  0  0  0  0
  2  3  2  0  0  0  0
  3  4  1  0  0  0  0
  3 19  1  0  0  0  0
  4  5  1  0  0  0  0
  4 14  1  0  0  0  0
  5  6  1  0  0  0  0
  5 20  1  0  0  0  0
  5 21  1  0  0  0  0
  6  7  2  0  0  0  0
  6  8  1  0  0  0  0
  8 13  1  0  0  0  0
  8  9  1  0  0  0  0
  9 10  1  0  0  0  0
  9 22  1  0  0  0  0
  9 23  1  0  0  0  0
 10 11  1  0  0  0  0
 10 24  1  0  0  0  0
 10 25  1  0  0  0  0
 11 12  1  0  0  0  0
 12 13  1  0  0  0  0
 12 26  1  0  0  0  0
 12 27  1  0  0  0  0
 13 28  1  0  0  0  0
 13 29  1  0  0  0  0
 14 15  2  0  0  0  0
M  END
$$$$
