
 OpenBabel03202621362D

 18 18  0  0  1  0  0  0  0  0999 V2000
   -1.3011   -3.9388   -0.4805 O   0  0  0  0  0  0  0  0  0  0  0  0
   -1.6220   -2.7795   -0.2088 C   0  0  0  0  0  0  0  0  0  0  0  0
   -0.7004   -1.7794   -0.2082 O   0  0  0  0  0  0  0  0  0  0  0  0
   -0.6480   -0.3519   -0.0390 C   0  0  0  0  0  0  0  0  0  0  0  0
   -1.6992    0.4822   -0.0933 C   0  0  0  0  0  0  0  0  0  0  0  0
   -1.5146    1.9672   -0.0309 C   0  0  0  0  0  0  0  0  0  0  0  0
   -0.1947    2.4536   -0.2777 O   0  0  0  0  0  0  0  0  0  0  0  0
    0.8138    1.5563   -0.0514 C   0  0  0  0  0  0  0  0  0  0  0  0
    0.6934    0.2250    0.1160 C   0  0  0  0  0  0  0  0  0  0  0  0
    1.5853   -0.6265    0.3797 O   0  5  0  0  0  0  0  0  0  0  0  0
   -3.0293   -2.3729    0.1513 C   0  0  2  0  0  0  0  0  0  0  0  0
   -3.6596   -1.6777   -0.8415 F   0  0  0  0  0  0  0  0  0  0  0  0
   -4.0467   -3.8094    0.4996 Cl  0  0  0  0  0  0  0  0  0  0  0  0
   -2.7172    0.1595   -0.2203 H   0  0  0  0  0  0  0  0  0  0  0  0
   -2.1626    2.4309   -0.7829 H   0  0  0  0  0  0  0  0  0  0  0  0
   -1.8405    2.3390    0.9477 H   0  0  0  0  0  0  0  0  0  0  0  0
    1.7736    2.0526   -0.0334 H   0  0  0  0  0  0  0  0  0  0  0  0
   -3.0331   -1.7824    1.0703 H   0  0  0  0  0  0  0  0  0  0  0  0
  1  2  2  0  0  0  0
  2  3  1  0  0  0  0
  2 11  1  0  0  0  0
  3  4  1  0  0  0  0
  4  9  1  0  0  0  0
  4  5  2  0  0  0  0
  5  6  1  0  0  0  0
  5 14  1  0  0  0  0
  6  7  1  0  0  0  0
  6 15  1  0  0  0  0
  6 16  1  0  0  0  0
  7  8  1  0  0  0  0
  8  9  2  0  0  0  0
  8 17  1  0  0  0  0
  9 10  1  0  0  0  0
 11 12  1  0  0  0  0
 11 13  1  0  0  0  0
 11 18  1  6  0  0  0
M  CHG  1  10  -1
M  END
$$$$
