
 OpenBabel03202621302D

 32 33  0  0  0  0  0  0  0  0999 V2000
   -4.3776   -2.5933    0.0000 C   0  0  0  0  0  0  0  0  0  0  0  0
   -4.3776   -1.5933    0.0000 C   0  0  0  0  0  0  0  0  0  0  0  0
   -3.5175   -0.7513   -0.0000 O   0  0  0  0  0  0  0  0  0  0  0  0
   -4.1582    0.3873   -0.0000 C   0  0  0  0  0  0  0  0  0  0  0  0
   -5.4132    0.9788   -0.0000 C   0  0  0  0  0  0  0  0  0  0  0  0
   -5.4903    2.3463    0.0000 C   0  0  0  0  0  0  0  0  0  0  0  0
   -4.3381    3.0083    0.0000 C   0  0  0  0  0  0  0  0  0  0  0  0
   -3.1936    2.2720    0.0000 C   0  0  0  0  0  0  0  0  0  0  0  0
   -2.9698    0.8547    0.0000 C   0  0  0  0  0  0  0  0  0  0  0  0
   -1.6034   -0.4943    0.0000 C   0  0  0  0  0  0  0  0  0  0  0  0
   -1.0607   -1.6874    0.0000 N   0  0  0  0  0  0  0  0  0  0  0  0
   -1.7427   -2.7775    0.0000 O   0  0  0  0  0  0  0  0  0  0  0  0
   -0.5269    0.1339   -0.0000 N   0  0  0  0  0  0  0  0  0  0  0  0
   -0.9784    1.2792    0.0001 C   0  0  0  0  0  0  0  0  0  0  0  0
    0.1691    1.6092    0.0000 C   0  0  0  0  0  0  0  0  0  0  0  0
    0.5759    2.5227    0.0000 C   0  0  0  0  0  0  0  0  0  0  0  0
    1.2650    0.7404    0.0000 N   0  0  0  0  0  0  0  0  0  0  0  0
    0.6969   -0.3659    0.0000 N   0  0  0  0  0  0  0  0  0  0  0  0
   -5.4037   -3.1229    0.0000 H   0  0  0  0  0  0  0  0  0  0  0  0
   -3.5006   -3.1780    0.0000 H   0  0  0  0  0  0  0  0  0  0  0  0
   -4.3776   -3.6633    0.0000 H   0  0  0  0  0  0  0  0  0  0  0  0
   -5.5160   -1.6752   -0.0000 H   0  0  0  0  0  0  0  0  0  0  0  0
   -5.2580   -0.9753    0.0000 H   0  0  0  0  0  0  0  0  0  0  0  0
   -6.3929    0.4567   -0.0000 H   0  0  0  0  0  0  0  0  0  0  0  0
   -6.4242    2.8468    0.0000 H   0  0  0  0  0  0  0  0  0  0  0  0
   -4.1465    4.0790   -0.0000 H   0  0  0  0  0  0  0  0  0  0  0  0
   -2.5046    3.1008    0.0000 H   0  0  0  0  0  0  0  0  0  0  0  0
   -2.4990   -2.2074   -0.0000 H   0  0  0  0  0  0  0  0  0  0  0  0
   -1.3295    2.2163   -0.0000 H   0  0  0  0  0  0  0  0  0  0  0  0
    1.6951    2.5219    0.0000 H   0  0  0  0  0  0  0  0  0  0  0  0
   -0.1357    3.3819    0.0000 H   0  0  0  0  0  0  0  0  0  0  0  0
    1.0112    3.5002    0.0000 H   0  0  0  0  0  0  0  0  0  0  0  0
  1  2  1  0  0  0  0
  1 19  1  0  0  0  0
  1 20  1  0  0  0  0
  1 21  1  0  0  0  0
  2  3  1  0  0  0  0
  2 22  1  0  0  0  0
  2 23  1  0  0  0  0
  3  4  1  0  0  0  0
  4  9  2  0  0  0  0
  4  5  1  0  0  0  0
  5  6  2  0  0  0  0
  5 24  1  0  0  0  0
  6  7  1  0  0  0  0
  6 25  1  0  0  0  0
  7  8  2  0  0  0  0
  7 26  1  0  0  0  0
  8  9  1  0  0  0  0
  8 27  1  0  0  0  0
  9 10  1  0  0  0  0
 10 11  2  3  0  0  0
 10 13  1  0  0  0  0
 11 12  1  0  0  0  0
 12 28  1  0  0  0  0
 13 18  1  0  0  0  0
 13 14  1  0  0  0  0
 14 15  2  0  0  0  0
 14 29  1  0  0  0  0
 15 16  1  0  0  0  0
 15 17  1  0  0  0  0
 16 30  1  0  0  0  0
 16 31  1  0  0  0  0
 16 32  1  0  0  0  0
 17 18  2  0  0  0  0
M  END
$$$$
