
 OpenBabel03202621352D

 20 21  0  0  0  0  0  0  0  0999 V2000
   -0.2788   -1.7601    0.0000 C   0  0  0  0  0  0  0  0  0  0  0  0
   -0.5878   -0.8090    0.0000 C   0  0  0  0  0  0  0  0  0  0  0  0
   -1.6988   -0.2619   -0.6309 C   0  0  0  0  0  0  0  0  0  0  0  0
   -1.8484    0.9932   -0.1148 N   0  0  0  0  0  0  0  0  0  0  0  0
   -2.9224    1.9501   -0.3175 C   0  0  0  0  0  0  0  0  0  0  0  0
   -4.2824    1.3915   -0.0600 C   0  0  0  0  0  0  0  0  0  0  0  0
   -4.6985    0.2710    0.6915 C   0  0  0  0  0  0  0  0  0  0  0  0
   -6.0308    0.1602    0.6524 N   0  0  0  0  0  0  0  0  0  0  0  0
   -6.3659    1.2241   -0.0920 N   0  0  0  0  0  0  0  0  0  0  0  0
   -5.3731    1.9981   -0.5631 N   0  0  0  0  0  0  0  0  0  0  0  0
   -0.8123    1.3009    0.6755 N   0  0  0  0  0  0  0  0  0  0  0  0
   -0.0456    0.2244    0.7594 N   0  0  0  0  0  0  0  0  0  0  0  0
   -0.3679   -1.9888    1.0889 H   0  0  0  0  0  0  0  0  0  0  0  0
    0.7894   -1.6089   -0.2837 H   0  0  0  0  0  0  0  0  0  0  0  0
    0.0518   -2.7777    0.0000 H   0  0  0  0  0  0  0  0  0  0  0  0
   -2.4273   -0.6929   -1.3050 H   0  0  0  0  0  0  0  0  0  0  0  0
   -2.7484    2.7972    0.3567 H   0  0  0  0  0  0  0  0  0  0  0  0
   -2.8308    2.3043   -1.3498 H   0  0  0  0  0  0  0  0  0  0  0  0
   -4.1174   -0.4549    1.2421 H   0  0  0  0  0  0  0  0  0  0  0  0
   -7.3420    1.4383   -0.2908 H   0  0  0  0  0  0  0  0  0  0  0  0
  1  2  1  0  0  0  0
  1 13  1  0  0  0  0
  1 14  1  0  0  0  0
  1 15  1  0  0  0  0
  2 12  1  0  0  0  0
  2  3  2  0  0  0  0
  3  4  1  0  0  0  0
  3 16  1  0  0  0  0
  4  5  1  0  0  0  0
  4 11  1  0  0  0  0
  5  6  1  0  0  0  0
  5 17  1  0  0  0  0
  5 18  1  0  0  0  0
  6 10  2  0  0  0  0
  6  7  1  0  0  0  0
  7  8  2  0  0  0  0
  7 19  1  0  0  0  0
  8  9  1  0  0  0  0
  9 10  1  0  0  0  0
  9 20  1  0  0  0  0
 11 12  2  0  0  0  0
M  END
$$$$
