
 OpenBabel03202621282D

 15 15  0  0  1  0  0  0  0  0999 V2000
   -5.2779   -1.3789    0.0000 C   0  0  0  0  0  0  0  0  0  0  0  0
   -5.0191   -2.3449    0.0000 S   0  0  0  0  0  0  0  0  0  0  0  0
   -4.0532   -2.6037    0.0000 C   0  0  0  0  0  0  0  0  0  0  0  0
   -3.7944   -3.5696    0.0000 S   0  0  0  0  0  0  0  0  0  0  0  0
   -3.3461   -1.8966    0.0000 N   0  0  0  0  0  0  0  0  0  0  0  0
   -2.3801   -2.1554    0.0000 C   0  0  0  0  0  0  0  0  0  0  0  0
   -1.6730   -1.4483    0.0000 C   0  0  0  0  0  0  0  0  0  0  0  0
   -0.7071   -1.7071    0.0000 C   0  0  0  0  0  0  0  0  0  0  0  0
   -0.4483   -2.6730    0.0000 O   0  0  0  0  0  0  0  0  0  0  0  0
    0.0000   -1.0000    0.0000 N   0  0  0  0  0  0  0  0  0  0  0  0
    0.0000   -0.0000    0.0000 C   0  0  0  0  0  0  0  0  0  0  0  0
   -0.7071    0.7071    0.0000 O   0  0  0  0  0  0  0  0  0  0  0  0
    1.0000    0.0000    0.0000 C   0  0  0  0  0  0  0  0  0  0  0  0
    1.0000   -1.0000    0.0000 C   0  0  2  0  0  0  0  0  0  0  0  0
    1.7071   -1.7071    0.0000 C   0  0  0  0  0  0  0  0  0  0  0  0
  1  2  1  0  0  0  0
  2  3  1  0  0  0  0
  3  4  2  0  0  0  0
  3  5  1  0  0  0  0
  5  6  1  0  0  0  0
  6  7  1  0  0  0  0
  7  8  1  0  0  0  0
  8  9  2  0  0  0  0
  8 10  1  0  0  0  0
 10 14  1  0  0  0  0
 10 11  1  0  0  0  0
 11 12  2  0  0  0  0
 11 13  1  0  0  0  0
 13 14  1  0  0  0  0
 14 15  1  6  0  0  0
M  END
$$$$
