
 OpenBabel03202621322D

 23 23  0  0  1  0  0  0  0  0999 V2000
    1.7321    0.0000    0.0000 C   0  0  0  0  0  0  0  0  0  0  0  0
    0.8660   -0.5000    0.0000 C   0  0  2  0  0  0  0  0  0  0  0  0
    0.8197   -1.9472    0.6484 C   0  0  0  0  0  0  0  0  0  0  0  0
   -0.4883   -2.6606    0.4650 C   0  0  0  0  0  0  0  0  0  0  0  0
   -1.6259   -2.0291    0.1604 C   0  0  0  0  0  0  0  0  0  0  0  0
   -1.7196   -0.5403    0.0226 C   0  0  0  0  0  0  0  0  0  0  0  0
   -0.4486    0.2496    0.4598 C   0  0  1  0  0  0  0  0  0  0  0  0
   -0.5199    1.6167   -0.0579 N   0  0  0  0  0  0  0  0  0  0  0  0
   -1.5152    2.5051    0.2309 C   0  0  0  0  0  0  0  0  0  0  0  0
   -1.4701    3.6834   -0.0996 O   0  0  0  0  0  0  0  0  0  0  0  0
    2.4300   -0.7600   -0.4291 H   0  0  0  0  0  0  0  0  0  0  0  0
    1.9009    0.1029    1.0983 H   0  0  0  0  0  0  0  0  0  0  0  0
    2.6588    0.5350    0.0000 H   0  0  0  0  0  0  0  0  0  0  0  0
    0.5930   -0.7090   -1.0549 H   0  0  0  0  0  0  0  0  0  0  0  0
    1.5922   -2.5813    0.1884 H   0  0  0  0  0  0  0  0  0  0  0  0
    1.0407   -1.9012    1.7227 H   0  0  0  0  0  0  0  0  0  0  0  0
   -0.4834   -3.7439    0.5565 H   0  0  0  0  0  0  0  0  0  0  0  0
   -2.5348   -2.6041   -0.0058 H   0  0  0  0  0  0  0  0  0  0  0  0
   -2.5774   -0.1987    0.6140 H   0  0  0  0  0  0  0  0  0  0  0  0
   -1.9550   -0.3144   -1.0246 H   0  0  0  0  0  0  0  0  0  0  0  0
   -0.4566    0.3307    1.5571 H   0  0  0  0  0  0  0  0  0  0  0  0
    0.2886    2.0418   -0.5051 H   0  0  0  0  0  0  0  0  0  0  0  0
   -2.3716    2.0680    0.7737 H   0  0  0  0  0  0  0  0  0  0  0  0
  1 11  1  0  0  0  0
  1 12  1  0  0  0  0
  1 13  1  0  0  0  0
  2  1  1  0  0  0  0
  2  3  1  0  0  0  0
  2  7  1  0  0  0  0
  2 14  1  1  0  0  0
  3  4  1  0  0  0  0
  3 15  1  0  0  0  0
  3 16  1  0  0  0  0
  4  5  2  0  0  0  0
  4 17  1  0  0  0  0
  5  6  1  0  0  0  0
  5 18  1  0  0  0  0
  6  7  1  0  0  0  0
  6 19  1  0  0  0  0
  6 20  1  0  0  0  0
  7  8  1  0  0  0  0
  7 21  1  6  0  0  0
  8  9  1  0  0  0  0
  8 22  1  0  0  0  0
  9 10  2  0  0  0  0
  9 23  1  0  0  0  0
M  END
$$$$
