
 OpenBabel03202621372D

 17 17  0  0  1  0  0  0  0  0999 V2000
   -1.9319   -0.4824    0.0000 C   0  0  0  0  0  0  0  0  0  0  0  0
   -1.6730   -1.4483    0.0000 S   0  0  0  0  0  0  0  0  0  0  0  0
    0.0525   -1.6983    0.1622 C   0  0  0  0  0  0  0  0  0  0  0  0
    0.4630   -2.6576    0.8118 O   0  0  0  0  0  0  0  0  0  0  0  0
    0.9571   -0.6289   -0.5671 C   0  0  2  0  0  0  0  0  0  0  0  0
    1.3775    0.6036    0.2510 C   0  0  0  0  0  0  0  0  0  0  0  0
    2.8268    0.1948    0.0014 C   0  0  0  0  0  0  0  0  0  0  0  0
    2.3827   -1.0490   -0.6316 N   0  0  0  0  0  0  0  0  0  0  0  0
   -1.9055   -0.2844    1.0911 H   0  0  0  0  0  0  0  0  0  0  0  0
   -2.9930   -0.5897   -0.2950 H   0  0  0  0  0  0  0  0  0  0  0  0
   -2.2089    0.5511    0.0000 H   0  0  0  0  0  0  0  0  0  0  0  0
    0.5809   -0.3664   -1.5638 H   0  0  0  0  0  0  0  0  0  0  0  0
    1.0797    0.5838    1.3043 H   0  0  0  0  0  0  0  0  0  0  0  0
    1.0868    1.5649   -0.1839 H   0  0  0  0  0  0  0  0  0  0  0  0
    3.3743    0.8580   -0.6749 H   0  0  0  0  0  0  0  0  0  0  0  0
    3.4230    0.0497    0.9083 H   0  0  0  0  0  0  0  0  0  0  0  0
    2.5664   -1.8860   -0.0676 H   0  0  0  0  0  0  0  0  0  0  0  0
  1  2  1  0  0  0  0
  1  9  1  0  0  0  0
  1 10  1  0  0  0  0
  1 11  1  0  0  0  0
  2  3  1  0  0  0  0
  3  4  2  0  0  0  0
  5  3  1  0  0  0  0
  5  6  1  0  0  0  0
  5  8  1  0  0  0  0
  5 12  1  1  0  0  0
  6  7  1  0  0  0  0
  6 13  1  0  0  0  0
  6 14  1  0  0  0  0
  7  8  1  0  0  0  0
  7 15  1  0  0  0  0
  7 16  1  0  0  0  0
  8 17  1  0  0  0  0
M  END
$$$$
