
 OpenBabel03202621372D

 18 18  0  0  1  0  0  0  0  0999 V2000
    2.5032   -0.9479    0.0000 C   0  0  0  0  0  0  0  0  0  0  0  0
    1.7601   -0.2788    0.0000 S   0  0  0  0  0  0  0  0  0  0  0  0
    0.1434   -0.8870    0.5452 C   0  0  2  0  0  0  0  0  0  0  0  0
   -0.3677   -2.1382   -0.1096 C   0  0  0  0  0  0  0  0  0  0  0  0
   -1.6693   -2.0368   -0.4167 C   0  0  0  0  0  0  0  0  0  0  0  0
   -2.2175   -0.6888   -0.0686 C   0  0  0  0  0  0  0  0  0  0  0  0
   -0.9332    0.1321    0.0613 C   0  0  2  0  0  0  0  0  0  0  0  0
   -1.1266    1.2783    1.0027 N   0  0  0  0  0  0  0  0  0  0  0  0
   -1.3489    2.3372    0.3973 O   0  0  0  0  0  0  0  0  0  0  0  0
    2.2486   -1.5102   -0.9207 H   0  0  0  0  0  0  0  0  0  0  0  0
    3.3403   -0.2717   -0.2588 H   0  0  0  0  0  0  0  0  0  0  0  0
    3.2984   -1.6639    0.0000 H   0  0  0  0  0  0  0  0  0  0  0  0
    0.1445   -1.0020    1.6348 H   0  0  0  0  0  0  0  0  0  0  0  0
    0.2276   -3.0365   -0.2412 H   0  0  0  0  0  0  0  0  0  0  0  0
   -2.2747   -2.8268   -0.8434 H   0  0  0  0  0  0  0  0  0  0  0  0
   -2.7973   -0.7329    0.8601 H   0  0  0  0  0  0  0  0  0  0  0  0
   -2.8583   -0.2899   -0.8617 H   0  0  0  0  0  0  0  0  0  0  0  0
   -0.6840    0.5415   -0.9303 H   0  0  0  0  0  0  0  0  0  0  0  0
  1  2  1  0  0  0  0
  1 10  1  0  0  0  0
  1 11  1  0  0  0  0
  1 12  1  0  0  0  0
  3  2  1  0  0  0  0
  3  4  1  0  0  0  0
  3  7  1  0  0  0  0
  3 13  1  1  0  0  0
  4  5  2  0  0  0  0
  4 14  1  0  0  0  0
  5  6  1  0  0  0  0
  5 15  1  0  0  0  0
  6  7  1  0  0  0  0
  6 16  1  0  0  0  0
  6 17  1  0  0  0  0
  7  8  1  0  0  0  0
  7 18  1  1  0  0  0
  8  9  2  0  0  0  0
M  END
$$$$
