
 OpenBabel03202621282D

 18 18  0  0  1  0  0  0  0  0999 V2000
    0.3660   -2.3660    0.0000 C   0  0  0  0  0  0  0  0  0  0  0  0
    0.8660   -3.2321    0.0000 C   0  0  0  0  0  0  0  0  0  0  0  0
    1.8660   -3.2321    0.0000 O   0  0  0  0  0  0  0  0  0  0  0  0
    2.3660   -2.3660    0.0000 C   0  0  0  0  0  0  0  0  0  0  0  0
    3.3660   -2.3660    0.0000 O   0  0  0  0  0  0  0  0  0  0  0  0
    1.8660   -1.5000    0.0000 C   0  0  1  0  0  0  0  0  0  0  0  0
    2.3660   -0.6340    0.0000 S   0  0  0  0  0  0  0  0  0  0  0  0
    3.3660   -0.6340    0.0000 C   0  0  0  0  0  0  0  0  0  0  0  0
    0.8660   -1.5000    0.0000 C   0  0  2  0  0  0  0  0  0  0  0  0
    0.8660   -2.5000    0.0000 O   0  0  0  0  0  0  0  0  0  0  0  0
   -0.1340   -1.5000    0.0000 C   0  0  0  0  0  0  0  0  0  0  0  0
   -0.6340   -2.3660    0.0000 C   0  0  0  0  0  0  0  0  0  0  0  0
    0.8660   -0.5000    0.0000 C   0  0  0  0  0  0  0  0  0  0  0  0
    1.7321   -0.0000    0.0000 C   0  0  0  0  0  0  0  0  0  0  0  0
    1.7321    1.0000    0.0000 C   0  0  0  0  0  0  0  0  0  0  0  0
    0.8660    1.5000    0.0000 C   0  0  0  0  0  0  0  0  0  0  0  0
    0.0000    1.0000    0.0000 C   0  0  0  0  0  0  0  0  0  0  0  0
    0.0000   -0.0000    0.0000 C   0  0  0  0  0  0  0  0  0  0  0  0
  1  2  1  0  0  0  0
  2  3  1  0  0  0  0
  3  4  1  0  0  0  0
  4  5  2  0  0  0  0
  6  4  1  6  0  0  0
  6  7  1  0  0  0  0
  6  9  1  0  0  0  0
  7  8  1  0  0  0  0
  9 10  1  1  0  0  0
  9 11  1  0  0  0  0
  9 13  1  0  0  0  0
 11 12  1  0  0  0  0
 13 18  2  0  0  0  0
 13 14  1  0  0  0  0
 14 15  2  0  0  0  0
 15 16  1  0  0  0  0
 16 17  2  0  0  0  0
 17 18  1  0  0  0  0
M  END
$$$$
