
 OpenBabel03202621392D

 24 25  0  0  0  0  0  0  0  0999 V2000
   -3.7461   -0.7232    0.0000 C   0  0  0  0  0  0  0  0  0  0  0  0
   -2.8325   -1.1300    0.0000 O   0  0  0  0  0  0  0  0  0  0  0  0
   -2.3629   -0.2022    1.0131 C   0  0  0  0  0  0  0  0  0  0  0  0
   -1.6414   -0.5601    1.9337 O   0  0  0  0  0  0  0  0  0  0  0  0
   -2.7553    1.2496    0.7583 C   0  0  0  0  0  0  0  0  0  0  0  0
   -4.0531    2.0926    1.4817 S   0  0  0  0  0  0  0  0  0  0  0  0
   -3.7255    3.5198    0.5528 C   0  0  0  0  0  0  0  0  0  0  0  0
   -2.5859    3.3905   -0.2231 C   0  0  0  0  0  0  0  0  0  0  0  0
   -2.0963    2.0680   -0.1208 C   0  0  0  0  0  0  0  0  0  0  0  0
   -0.8313    1.6356   -0.4915 N   0  0  0  0  0  0  0  0  0  0  0  0
    0.1737    1.8949    0.3971 C   0  0  0  0  0  0  0  0  0  0  0  0
    1.2024    1.0827    0.0000 C   0  0  0  0  0  0  0  0  0  0  0  0
    2.1160    1.4894    0.0000 C   0  0  0  0  0  0  0  0  0  0  0  0
    0.6867    0.1447   -0.8636 N   0  0  0  0  0  0  0  0  0  0  0  0
   -0.5632    0.4857   -1.1454 N   0  0  0  0  0  0  0  0  0  0  0  0
   -3.8901   -0.6120   -1.0977 H   0  0  0  0  0  0  0  0  0  0  0  0
   -4.3397   -1.6148    0.3017 H   0  0  0  0  0  0  0  0  0  0  0  0
   -4.7236   -0.2880    0.0000 H   0  0  0  0  0  0  0  0  0  0  0  0
   -4.3482    4.3997    0.6673 H   0  0  0  0  0  0  0  0  0  0  0  0
   -2.1526    4.2010   -0.7963 H   0  0  0  0  0  0  0  0  0  0  0  0
    0.1396    2.7692    1.0362 H   0  0  0  0  0  0  0  0  0  0  0  0
    2.7184    0.5682    0.1821 H   0  0  0  0  0  0  0  0  0  0  0  0
    2.2105    1.7856   -1.0766 H   0  0  0  0  0  0  0  0  0  0  0  0
    3.0935    1.9246    0.0000 H   0  0  0  0  0  0  0  0  0  0  0  0
  1  2  1  0  0  0  0
  1 16  1  0  0  0  0
  1 17  1  0  0  0  0
  1 18  1  0  0  0  0
  2  3  1  0  0  0  0
  3  4  2  0  0  0  0
  3  5  1  0  0  0  0
  5  9  2  0  0  0  0
  5  6  1  0  0  0  0
  6  7  1  0  0  0  0
  7  8  2  0  0  0  0
  7 19  1  0  0  0  0
  8  9  1  0  0  0  0
  8 20  1  0  0  0  0
  9 10  1  0  0  0  0
 10 15  1  0  0  0  0
 10 11  1  0  0  0  0
 11 12  2  0  0  0  0
 11 21  1  0  0  0  0
 12 13  1  0  0  0  0
 12 14  1  0  0  0  0
 13 22  1  0  0  0  0
 13 23  1  0  0  0  0
 13 24  1  0  0  0  0
 14 15  2  0  0  0  0
M  END
$$$$
