
 OpenBabel03202621302D

 34 34  0  0  1  0  0  0  0  0999 V2000
    2.5981   -0.5000    0.0000 C   0  0  0  0  0  0  0  0  0  0  0  0
    3.4641    0.0000    0.0000 C   0  0  0  0  0  0  0  0  0  0  0  0
    4.3301   -0.5000    0.0000 C   0  0  0  0  0  0  0  0  0  0  0  0
    3.4641    1.0000    0.0000 C   0  0  1  0  0  0  0  0  0  0  0  0
    4.3301    1.5000    0.0000 C   0  0  0  0  0  0  0  0  0  0  0  0
    2.0950    1.8897    0.1698 N   0  0  0  0  0  0  0  0  0  0  0  0
    0.9428    1.8720   -0.6759 C   0  0  0  0  0  0  0  0  0  0  0  0
    0.5549    2.9319   -1.1607 O   0  0  0  0  0  0  0  0  0  0  0  0
    0.4189    0.5342   -1.1730 C   0  0  0  0  0  0  0  0  0  0  0  0
   -0.5302   -0.2819   -0.6391 C   0  0  0  0  0  0  0  0  0  0  0  0
   -0.4381   -1.8014   -0.8643 C   0  0  0  0  0  0  0  0  0  0  0  0
   -1.6777   -2.6245   -0.5061 C   0  0  0  0  0  0  0  0  0  0  0  0
   -2.8861   -1.8958   -0.5606 O   0  0  0  0  0  0  0  0  0  0  0  0
   -2.7472   -0.7229    0.1501 C   0  0  0  0  0  0  0  0  0  0  0  0
   -1.6608    0.0454    0.2362 C   0  0  0  0  0  0  0  0  0  0  0  0
   -1.4753    1.0423    0.9808 O   0  5  0  0  0  0  0  0  0  0  0  0
    1.9396   -0.0802    0.8666 H   0  0  0  0  0  0  0  0  0  0  0  0
    2.7130   -1.5409    0.5085 H   0  0  0  0  0  0  0  0  0  0  0  0
    1.6715   -1.0350    0.0000 H   0  0  0  0  0  0  0  0  0  0  0  0
    3.5742   -0.0557    1.1527 H   0  0  0  0  0  0  0  0  0  0  0  0
    4.1734   -1.6330   -0.1679 H   0  0  0  0  0  0  0  0  0  0  0  0
    4.7213   -0.3335   -1.0783 H   0  0  0  0  0  0  0  0  0  0  0  0
    5.2567   -1.0350    0.0000 H   0  0  0  0  0  0  0  0  0  0  0  0
    3.2712    1.1300   -1.1291 H   0  0  0  0  0  0  0  0  0  0  0  0
    4.4073    1.7773    1.0968 H   0  0  0  0  0  0  0  0  0  0  0  0
    4.0854    2.4969   -0.4872 H   0  0  0  0  0  0  0  0  0  0  0  0
    5.2567    2.0350    0.0000 H   0  0  0  0  0  0  0  0  0  0  0  0
    2.2439    2.8516    0.4502 H   0  0  0  0  0  0  0  0  0  0  0  0
    1.1034    0.1127   -1.9072 H   0  0  0  0  0  0  0  0  0  0  0  0
    0.2977   -2.2183   -0.1707 H   0  0  0  0  0  0  0  0  0  0  0  0
   -0.0706   -2.0464   -1.8558 H   0  0  0  0  0  0  0  0  0  0  0  0
   -1.7427   -3.4869   -1.1736 H   0  0  0  0  0  0  0  0  0  0  0  0
   -1.5701   -3.0468    0.5049 H   0  0  0  0  0  0  0  0  0  0  0  0
   -3.6802   -0.4866    0.6495 H   0  0  0  0  0  0  0  0  0  0  0  0
  1  2  1  0  0  0  0
  1 17  1  0  0  0  0
  1 18  1  0  0  0  0
  1 19  1  0  0  0  0
  2  3  1  0  0  0  0
  2  4  1  0  0  0  0
  2 20  1  0  0  0  0
  3 21  1  0  0  0  0
  3 22  1  0  0  0  0
  3 23  1  0  0  0  0
  4  5  1  0  0  0  0
  4  6  1  0  0  0  0
  4 24  1  1  0  0  0
  5 25  1  0  0  0  0
  5 26  1  0  0  0  0
  5 27  1  0  0  0  0
  6  7  1  0  0  0  0
  6 28  1  0  0  0  0
  7  8  2  0  0  0  0
  7  9  1  0  0  0  0
  9 10  2  3  0  0  0
  9 29  1  0  0  0  0
 10 15  1  0  0  0  0
 10 11  1  0  0  0  0
 11 12  1  0  0  0  0
 11 30  1  0  0  0  0
 11 31  1  0  0  0  0
 12 13  1  0  0  0  0
 12 32  1  0  0  0  0
 12 33  1  0  0  0  0
 13 14  1  0  0  0  0
 14 15  2  0  0  0  0
 14 34  1  0  0  0  0
 15 16  1  0  0  0  0
M  CHG  1  16  -1
M  END
$$$$
