
 OpenBabel03202621332D

 26 28  0  0  0  0  0  0  0  0999 V2000
   -1.1215    1.3849    0.0000 C   0  0  0  0  0  0  0  0  0  0  0  0
   -0.2079    0.9781    0.0000 C   0  0  0  0  0  0  0  0  0  0  0  0
    0.7856    1.6280    0.0000 C   0  0  0  0  0  0  0  0  0  0  0  0
    1.4582    0.5362    0.0000 N   0  0  0  0  0  0  0  0  0  0  0  0
    2.7008    0.7725   -0.0000 C   0  0  0  0  0  0  0  0  0  0  0  0
    2.9404    2.1393    0.0000 N   0  0  0  0  0  0  0  0  0  0  0  0
    2.1368    3.2733   -0.0000 N   0  0  0  0  0  0  0  0  0  0  0  0
    2.8058    4.3494    0.0000 N   0  0  0  0  0  0  0  0  0  0  0  0
    4.0528    3.8816    0.0000 C   0  0  0  0  0  0  0  0  0  0  0  0
    5.1209    4.6046   -0.0000 C   0  0  0  0  0  0  0  0  0  0  0  0
    6.2529    3.7880   -0.0000 C   0  0  0  0  0  0  0  0  0  0  0  0
    6.3585    2.4002   -0.0000 C   0  0  0  0  0  0  0  0  0  0  0  0
    5.2096    1.6692   -0.0000 C   0  0  0  0  0  0  0  0  0  0  0  0
    4.1311    2.5129    0.0000 C   0  0  0  0  0  0  0  0  0  0  0  0
    0.9847   -0.6837    0.0000 N   0  0  0  0  0  0  0  0  0  0  0  0
   -0.2305   -0.4022   -0.0000 N   0  0  0  0  0  0  0  0  0  0  0  0
   -1.1530    2.4965   -0.0000 H   0  0  0  0  0  0  0  0  0  0  0  0
   -1.9047    0.5961   -0.0000 H   0  0  0  0  0  0  0  0  0  0  0  0
   -2.0990    1.8201    0.0000 H   0  0  0  0  0  0  0  0  0  0  0  0
    0.5563    2.7079    0.0000 H   0  0  0  0  0  0  0  0  0  0  0  0
    2.9507   -0.3431    0.0000 H   0  0  0  0  0  0  0  0  0  0  0  0
    3.7497    0.2936    0.0000 H   0  0  0  0  0  0  0  0  0  0  0  0
    4.9328    5.6554   -0.0000 H   0  0  0  0  0  0  0  0  0  0  0  0
    7.1852    4.2719   -0.0000 H   0  0  0  0  0  0  0  0  0  0  0  0
    7.1477    1.7258   -0.0000 H   0  0  0  0  0  0  0  0  0  0  0  0
    5.2507    0.5749    0.0000 H   0  0  0  0  0  0  0  0  0  0  0  0
  1  2  1  0  0  0  0
  1 17  1  0  0  0  0
  1 18  1  0  0  0  0
  1 19  1  0  0  0  0
  2 16  1  0  0  0  0
  2  3  2  0  0  0  0
  3  4  1  0  0  0  0
  3 20  1  0  0  0  0
  4  5  1  0  0  0  0
  4 15  1  0  0  0  0
  5  6  1  0  0  0  0
  5 21  1  0  0  0  0
  5 22  1  0  0  0  0
  6 14  1  0  0  0  0
  6  7  1  0  0  0  0
  7  8  2  0  0  0  0
  8  9  1  0  0  0  0
  9 14  2  0  0  0  0
  9 10  1  0  0  0  0
 10 11  2  0  0  0  0
 10 23  1  0  0  0  0
 11 12  1  0  0  0  0
 11 24  1  0  0  0  0
 12 13  2  0  0  0  0
 12 25  1  0  0  0  0
 13 14  1  0  0  0  0
 13 26  1  0  0  0  0
 15 16  2  0  0  0  0
M  END
$$$$
