
 OpenBabel03202621342D

 40 43  0  0  1  0  0  0  0  0999 V2000
   -6.9223   -1.0568    0.0000 C   0  0  0  0  0  0  0  0  0  0  0  0
   -6.0283   -0.5407    0.0000 C   0  0  0  0  0  0  0  0  0  0  0  0
   -5.8745    0.7131   -0.5733 C   0  0  0  0  0  0  0  0  0  0  0  0
   -4.7000    1.2303   -0.0964 N   0  0  0  0  0  0  0  0  0  0  0  0
   -4.2357    2.5738   -0.2055 C   0  0  0  0  0  0  0  0  0  0  0  0
   -5.1726    3.5870   -0.4953 C   0  0  0  0  0  0  0  0  0  0  0  0
   -4.7816    4.9259   -0.5468 C   0  0  0  0  0  0  0  0  0  0  0  0
   -3.4537    5.2684   -0.3216 C   0  0  0  0  0  0  0  0  0  0  0  0
   -2.5127    4.2727   -0.0529 C   0  0  0  0  0  0  0  0  0  0  0  0
   -2.8792    2.9154   -0.0026 C   0  0  0  0  0  0  0  0  0  0  0  0
   -1.8326    1.8630    0.2766 C   0  0  0  0  0  0  0  0  0  0  0  0
   -0.5168    2.2375   -0.1216 O   0  0  0  0  0  0  0  0  0  0  0  0
    0.4782    1.3511    0.4060 C   0  0  1  0  0  0  0  0  0  0  0  0
    1.7438    1.4652   -0.4962 C   0  0  0  0  0  0  0  0  0  0  0  0
    1.9693    0.0087   -0.9571 C   0  0  1  0  0  0  0  0  0  0  0  0
    2.3591   -0.8108    0.2536 C   0  0  0  0  0  0  0  0  0  0  0  0
    1.2655   -0.9227    1.0240 C   0  0  0  0  0  0  0  0  0  0  0  0
    0.1555   -0.1749    0.3237 C   0  0  2  0  0  0  0  0  0  0  0  0
    0.5294   -0.4800   -1.1294 C   0  0  0  0  0  0  0  0  0  0  0  0
   -4.0677    0.2588    0.6009 N   0  0  0  0  0  0  0  0  0  0  0  0
   -4.8625   -0.8017    0.6788 N   0  0  0  0  0  0  0  0  0  0  0  0
   -7.1542   -1.0044    1.0905 H   0  0  0  0  0  0  0  0  0  0  0  0
   -6.5372   -2.0720   -0.2542 H   0  0  0  0  0  0  0  0  0  0  0  0
   -7.8490   -1.5918    0.0000 H   0  0  0  0  0  0  0  0  0  0  0  0
   -6.5487    1.2908   -1.1886 H   0  0  0  0  0  0  0  0  0  0  0  0
   -6.2295    3.3747   -0.6345 H   0  0  0  0  0  0  0  0  0  0  0  0
   -5.5174    5.7017   -0.7457 H   0  0  0  0  0  0  0  0  0  0  0  0
   -3.1478    6.3111   -0.3532 H   0  0  0  0  0  0  0  0  0  0  0  0
   -1.4744    4.5607    0.1112 H   0  0  0  0  0  0  0  0  0  0  0  0
   -1.8507    1.6262    1.3469 H   0  0  0  0  0  0  0  0  0  0  0  0
   -2.0653    0.9922   -0.3390 H   0  0  0  0  0  0  0  0  0  0  0  0
    0.6965    1.6658    1.4338 H   0  0  0  0  0  0  0  0  0  0  0  0
    1.5630    2.1207   -1.3557 H   0  0  0  0  0  0  0  0  0  0  0  0
    2.6015    1.8520    0.0647 H   0  0  0  0  0  0  0  0  0  0  0  0
    2.6122   -0.1252   -1.8270 H   0  0  0  0  0  0  0  0  0  0  0  0
    3.3439   -1.1896    0.4722 H   0  0  0  0  0  0  0  0  0  0  0  0
    1.1910   -1.4078    1.9854 H   0  0  0  0  0  0  0  0  0  0  0  0
   -0.8430   -0.5088    0.6064 H   0  0  0  0  0  0  0  0  0  0  0  0
    0.4534   -1.5456   -1.3822 H   0  0  0  0  0  0  0  0  0  0  0  0
   -0.0445    0.1005   -1.8601 H   0  0  0  0  0  0  0  0  0  0  0  0
  1  2  1  0  0  0  0
  1 22  1  0  0  0  0
  1 23  1  0  0  0  0
  1 24  1  0  0  0  0
  2 21  1  0  0  0  0
  2  3  2  0  0  0  0
  3  4  1  0  0  0  0
  3 25  1  0  0  0  0
  4  5  1  0  0  0  0
  4 20  1  0  0  0  0
  5 10  2  0  0  0  0
  5  6  1  0  0  0  0
  6  7  2  0  0  0  0
  6 26  1  0  0  0  0
  7  8  1  0  0  0  0
  7 27  1  0  0  0  0
  8  9  2  0  0  0  0
  8 28  1  0  0  0  0
  9 10  1  0  0  0  0
  9 29  1  0  0  0  0
 10 11  1  0  0  0  0
 11 12  1  0  0  0  0
 11 30  1  0  0  0  0
 11 31  1  0  0  0  0
 13 12  1  0  0  0  0
 13 14  1  0  0  0  0
 13 18  1  0  0  0  0
 13 32  1  6  0  0  0
 14 33  1  0  0  0  0
 14 34  1  0  0  0  0
 15 14  1  0  0  0  0
 15 16  1  0  0  0  0
 15 19  1  0  0  0  0
 15 35  1  6  0  0  0
 16 17  2  0  0  0  0
 16 36  1  0  0  0  0
 17 37  1  0  0  0  0
 18 17  1  0  0  0  0
 18 19  1  0  0  0  0
 18 38  1  1  0  0  0
 19 39  1  0  0  0  0
 19 40  1  0  0  0  0
 20 21  2  0  0  0  0
M  END
$$$$
