
 OpenBabel03202621372D

 28 27  0  0  1  0  0  0  0  0999 V2000
    3.4641   -2.0000    0.0000 C   0  0  0  0  0  0  0  0  0  0  0  0
    4.3301   -1.5000    0.0000 C   0  0  0  0  0  0  0  0  0  0  0  0
    4.3301   -0.5000    0.0000 C   0  0  1  0  0  0  0  0  0  0  0  0
    5.1962    0.0000    0.0000 C   0  0  0  0  0  0  0  0  0  0  0  0
    3.4641    0.0000    0.0000 C   0  0  1  0  0  0  0  0  0  0  0  0
    3.4641    1.0000    0.0000 C   0  0  0  0  0  0  0  0  0  0  0  0
    2.5875   -0.3718   -1.4861 N   0  0  0  0  0  0  0  0  0  0  0  0
    1.3509    0.0386   -1.5267 C   0  0  0  0  0  0  0  0  0  0  0  0
    0.7652    0.7204   -2.3607 O   0  0  0  0  0  0  0  0  0  0  0  0
    0.8660   -0.5000    0.0000 S   0  0  0  0  0  0  0  0  0  0  0  0
    0.0000    0.0000    0.0000 C   0  0  0  0  0  0  0  0  0  0  0  0
    3.5742   -2.7501   -0.8463 H   0  0  0  0  0  0  0  0  0  0  0  0
    3.5090   -2.6236    0.9458 H   0  0  0  0  0  0  0  0  0  0  0  0
    2.5375   -2.5350    0.0000 H   0  0  0  0  0  0  0  0  0  0  0  0
    5.0562   -2.0518    0.7026 H   0  0  0  0  0  0  0  0  0  0  0  0
    4.9617   -1.8702   -0.8838 H   0  0  0  0  0  0  0  0  0  0  0  0
    4.3174   -0.4809    1.1748 H   0  0  0  0  0  0  0  0  0  0  0  0
    5.9898   -0.5507    0.6351 H   0  0  0  0  0  0  0  0  0  0  0  0
    5.5538   -0.0399   -1.0917 H   0  0  0  0  0  0  0  0  0  0  0  0
    6.1229    0.5350    0.0000 H   0  0  0  0  0  0  0  0  0  0  0  0
    3.7617    0.4378   -1.0678 H   0  0  0  0  0  0  0  0  0  0  0  0
    3.8366    1.2898    1.0523 H   0  0  0  0  0  0  0  0  0  0  0  0
    2.4090    1.2630    0.2387 H   0  0  0  0  0  0  0  0  0  0  0  0
    3.4641    2.0700    0.0000 H   0  0  0  0  0  0  0  0  0  0  0  0
    2.5737   -1.3460   -1.7592 H   0  0  0  0  0  0  0  0  0  0  0  0
    0.0834    0.4926    0.9889 H   0  0  0  0  0  0  0  0  0  0  0  0
   -0.6953   -0.8562    0.1093 H   0  0  0  0  0  0  0  0  0  0  0  0
   -0.9266    0.5350    0.0000 H   0  0  0  0  0  0  0  0  0  0  0  0
  1  2  1  0  0  0  0
  1 12  1  0  0  0  0
  1 13  1  0  0  0  0
  1 14  1  0  0  0  0
  2  3  1  0  0  0  0
  2 15  1  0  0  0  0
  2 16  1  0  0  0  0
  3  4  1  0  0  0  0
  3  5  1  0  0  0  0
  3 17  1  1  0  0  0
  4 18  1  0  0  0  0
  4 19  1  0  0  0  0
  4 20  1  0  0  0  0
  5  6  1  0  0  0  0
  5  7  1  0  0  0  0
  5 21  1  1  0  0  0
  6 22  1  0  0  0  0
  6 23  1  0  0  0  0
  6 24  1  0  0  0  0
  7  8  1  0  0  0  0
  7 25  1  0  0  0  0
  8  9  2  0  0  0  0
  8 10  1  0  0  0  0
 10 11  1  0  0  0  0
 11 26  1  0  0  0  0
 11 27  1  0  0  0  0
 11 28  1  0  0  0  0
M  END
$$$$
