
 OpenBabel03202621372D

 39 40  0  0  1  0  0  0  0  0999 V2000
   -4.5714   -0.4954    0.0000 C   0  0  0  0  0  0  0  0  0  0  0  0
   -4.1646   -1.4090    0.0000 S   0  0  0  0  0  0  0  0  0  0  0  0
   -2.5606   -1.8626    0.6882 C   0  0  1  0  0  0  0  0  0  0  0  0
   -2.3276   -3.3012    0.1652 C   0  0  0  0  0  0  0  0  0  0  0  0
   -1.0020   -3.7674    0.3847 O   0  0  0  0  0  0  0  0  0  0  0  0
   -1.6045   -0.8348    0.1813 C   0  0  0  0  0  0  0  0  0  0  0  0
   -0.1367   -1.0772    0.4608 C   0  0  0  0  0  0  0  0  0  0  0  0
    0.4471    0.2489    0.5661 N   0  0  0  0  0  0  0  0  0  0  0  0
    0.1730    1.2805   -0.2901 C   0  0  0  0  0  0  0  0  0  0  0  0
    0.4033    2.4033    0.4564 C   0  0  0  0  0  0  0  0  0  0  0  0
    0.3602    3.8248    0.0109 C   0  0  0  0  0  0  0  0  0  0  0  0
    1.2288    4.1361   -1.1140 O   0  0  0  0  0  0  0  0  0  0  0  0
    2.4725    3.5794   -0.9354 C   0  0  0  0  0  0  0  0  0  0  0  0
    3.3750    4.1408   -0.0412 C   0  0  0  0  0  0  0  0  0  0  0  0
    4.5251    3.4269    0.2980 C   0  0  0  0  0  0  0  0  0  0  0  0
    4.7478    2.1575   -0.2419 C   0  0  0  0  0  0  0  0  0  0  0  0
    3.8646    1.6251   -1.1786 C   0  0  0  0  0  0  0  0  0  0  0  0
    2.7486    2.3623   -1.5652 C   0  0  0  0  0  0  0  0  0  0  0  0
    0.8235    2.0319    1.7085 N   0  0  0  0  0  0  0  0  0  0  0  0
    0.8257    0.7076    1.7749 N   0  0  0  0  0  0  0  0  0  0  0  0
   -4.5497   -0.2784    1.0867 H   0  0  0  0  0  0  0  0  0  0  0  0
   -5.6102   -0.7714   -0.2626 H   0  0  0  0  0  0  0  0  0  0  0  0
   -5.0066    0.4821    0.0000 H   0  0  0  0  0  0  0  0  0  0  0  0
   -2.5863   -1.8766    1.7859 H   0  0  0  0  0  0  0  0  0  0  0  0
   -2.5146   -3.3770   -0.9129 H   0  0  0  0  0  0  0  0  0  0  0  0
   -3.0086   -4.0011    0.6695 H   0  0  0  0  0  0  0  0  0  0  0  0
   -0.9643   -4.6666    0.0049 H   0  0  0  0  0  0  0  0  0  0  0  0
   -1.7258   -0.6878   -0.9011 H   0  0  0  0  0  0  0  0  0  0  0  0
   -1.9169    0.1102    0.6614 H   0  0  0  0  0  0  0  0  0  0  0  0
    0.0571   -1.6169    1.3800 H   0  0  0  0  0  0  0  0  0  0  0  0
    0.3626   -1.5830   -0.3890 H   0  0  0  0  0  0  0  0  0  0  0  0
   -0.1871    1.1240   -1.3042 H   0  0  0  0  0  0  0  0  0  0  0  0
   -0.6606    4.0489   -0.3179 H   0  0  0  0  0  0  0  0  0  0  0  0
    0.5808    4.5080    0.8428 H   0  0  0  0  0  0  0  0  0  0  0  0
    3.1690    5.0975    0.4277 H   0  0  0  0  0  0  0  0  0  0  0  0
    5.2263    3.8382    1.0175 H   0  0  0  0  0  0  0  0  0  0  0  0
    5.6100    1.5730    0.0788 H   0  0  0  0  0  0  0  0  0  0  0  0
    4.0148    0.6242   -1.5704 H   0  0  0  0  0  0  0  0  0  0  0  0
    2.0350    1.9382   -2.2623 H   0  0  0  0  0  0  0  0  0  0  0  0
  1  2  1  0  0  0  0
  1 21  1  0  0  0  0
  1 22  1  0  0  0  0
  1 23  1  0  0  0  0
  2  3  1  0  0  0  0
  3  4  1  0  0  0  0
  3  6  1  0  0  0  0
  3 24  1  1  0  0  0
  4  5  1  0  0  0  0
  4 25  1  0  0  0  0
  4 26  1  0  0  0  0
  5 27  1  0  0  0  0
  6  7  1  0  0  0  0
  6 28  1  0  0  0  0
  6 29  1  0  0  0  0
  7  8  1  0  0  0  0
  7 30  1  0  0  0  0
  7 31  1  0  0  0  0
  8 20  1  0  0  0  0
  8  9  1  0  0  0  0
  9 10  2  0  0  0  0
  9 32  1  0  0  0  0
 10 11  1  0  0  0  0
 10 19  1  0  0  0  0
 11 12  1  0  0  0  0
 11 33  1  0  0  0  0
 11 34  1  0  0  0  0
 12 13  1  0  0  0  0
 13 18  2  0  0  0  0
 13 14  1  0  0  0  0
 14 15  2  0  0  0  0
 14 35  1  0  0  0  0
 15 16  1  0  0  0  0
 15 36  1  0  0  0  0
 16 17  2  0  0  0  0
 16 37  1  0  0  0  0
 17 18  1  0  0  0  0
 17 38  1  0  0  0  0
 18 39  1  0  0  0  0
 19 20  2  0  0  0  0
M  END
$$$$
