
 OpenBabel03202621372D

 35 35  0  0  0  0  0  0  0  0999 V2000
   -8.5338   -3.4529   -0.3810 C   0  0  0  0  0  0  0  0  0  0  0  0
   -7.2486   -4.2294   -0.1756 C   0  0  0  0  0  0  0  0  0  0  0  0
   -6.2025   -3.2677   -0.3366 O   0  0  0  0  0  0  0  0  0  0  0  0
   -5.1447   -3.3774    0.5033 C   0  0  0  0  0  0  0  0  0  0  0  0
   -4.8783   -4.3599    1.1842 O   0  0  0  0  0  0  0  0  0  0  0  0
   -4.5025   -2.0415    0.6908 C   0  0  0  0  0  0  0  0  0  0  0  0
   -4.5228   -1.1542   -0.5242 C   0  0  0  0  0  0  0  0  0  0  0  0
   -4.1799   -1.5718   -1.6343 O   0  0  0  0  0  0  0  0  0  0  0  0
   -4.9668    0.2971   -0.2977 C   0  0  0  0  0  0  0  0  0  0  0  0
   -4.4052    1.3156   -1.1109 O   0  0  0  0  0  0  0  0  0  0  0  0
   -2.9820    1.2587   -1.2483 C   0  0  0  0  0  0  0  0  0  0  0  0
   -2.2455    1.4792    0.0645 C   0  0  0  0  0  0  0  0  0  0  0  0
   -0.8818    1.0285   -0.0016 N   0  0  0  0  0  0  0  0  0  0  0  0
    0.2216    1.7759   -0.2528 C   0  0  0  0  0  0  0  0  0  0  0  0
    1.3090    0.9511    0.0000 C   0  0  0  0  0  0  0  0  0  0  0  0
    2.2601    1.2601    0.0000 C   0  0  0  0  0  0  0  0  0  0  0  0
    0.7816   -0.2896    0.3197 N   0  0  0  0  0  0  0  0  0  0  0  0
   -0.5458   -0.2275    0.3204 N   0  0  0  0  0  0  0  0  0  0  0  0
   -8.6064   -3.1090   -1.4185 H   0  0  0  0  0  0  0  0  0  0  0  0
   -9.4105   -4.0574   -0.1419 H   0  0  0  0  0  0  0  0  0  0  0  0
   -8.5364   -2.5525    0.2452 H   0  0  0  0  0  0  0  0  0  0  0  0
   -7.1407   -5.0211   -0.9238 H   0  0  0  0  0  0  0  0  0  0  0  0
   -7.2429   -4.6695    0.8278 H   0  0  0  0  0  0  0  0  0  0  0  0
   -3.4620   -2.1602    1.0044 H   0  0  0  0  0  0  0  0  0  0  0  0
   -5.0594   -1.5525    1.4977 H   0  0  0  0  0  0  0  0  0  0  0  0
   -6.0526    0.3250   -0.4434 H   0  0  0  0  0  0  0  0  0  0  0  0
   -4.7957    0.5650    0.7499 H   0  0  0  0  0  0  0  0  0  0  0  0
   -2.6872    0.3237   -1.7340 H   0  0  0  0  0  0  0  0  0  0  0  0
   -2.7016    2.0522   -1.9514 H   0  0  0  0  0  0  0  0  0  0  0  0
   -2.7066    0.9633    0.9111 H   0  0  0  0  0  0  0  0  0  0  0  0
   -2.2449    2.5442    0.3215 H   0  0  0  0  0  0  0  0  0  0  0  0
    0.1576    2.8214   -0.5191 H   0  0  0  0  0  0  0  0  0  0  0  0
    2.5601    0.9413    1.0266 H   0  0  0  0  0  0  0  0  0  0  0  0
    2.6774    0.5523   -0.7545 H   0  0  0  0  0  0  0  0  0  0  0  0
    3.2777    1.5907    0.0000 H   0  0  0  0  0  0  0  0  0  0  0  0
  1  2  1  0  0  0  0
  1 19  1  0  0  0  0
  1 20  1  0  0  0  0
  1 21  1  0  0  0  0
  2  3  1  0  0  0  0
  2 22  1  0  0  0  0
  2 23  1  0  0  0  0
  3  4  1  0  0  0  0
  4  5  2  0  0  0  0
  4  6  1  0  0  0  0
  6  7  1  0  0  0  0
  6 24  1  0  0  0  0
  6 25  1  0  0  0  0
  7  8  2  0  0  0  0
  7  9  1  0  0  0  0
  9 10  1  0  0  0  0
  9 26  1  0  0  0  0
  9 27  1  0  0  0  0
 10 11  1  0  0  0  0
 11 12  1  0  0  0  0
 11 28  1  0  0  0  0
 11 29  1  0  0  0  0
 12 13  1  0  0  0  0
 12 30  1  0  0  0  0
 12 31  1  0  0  0  0
 13 18  1  0  0  0  0
 13 14  1  0  0  0  0
 14 15  2  0  0  0  0
 14 32  1  0  0  0  0
 15 16  1  0  0  0  0
 15 17  1  0  0  0  0
 16 33  1  0  0  0  0
 16 34  1  0  0  0  0
 16 35  1  0  0  0  0
 17 18  2  0  0  0  0
M  END
$$$$
