
 OpenBabel03202621282D

 31 31  0  0  1  0  0  0  0  0999 V2000
    5.3301    0.2321    0.0000 C   0  0  0  0  0  0  0  0  0  0  0  0
    4.3301    0.2321    0.0000 C   0  0  0  0  0  0  0  0  0  0  0  0
    3.8301    1.0981    0.0000 O   0  0  0  0  0  0  0  0  0  0  0  0
    3.8301   -0.6340    0.0000 C   0  0  0  0  0  0  0  0  0  0  0  0
    4.3301   -1.5000    0.0000 C   0  0  3  0  0  0  0  0  0  0  0  0
    5.1962   -1.0000    0.0000 O   0  0  0  0  0  0  0  0  0  0  0  0
    4.8301   -2.3660    0.0000 C   0  0  0  0  0  0  0  0  0  0  0  0
    5.8301   -2.3660    0.0000 C   0  0  0  0  0  0  0  0  0  0  0  0
    6.3301   -3.2321    0.0000 C   0  0  0  0  0  0  0  0  0  0  0  0
    7.3301   -3.2321    0.0000 O   0  0  0  0  0  0  0  0  0  0  0  0
    7.8301   -4.0981    0.0000 C   0  0  0  0  0  0  0  0  0  0  0  0
    8.8301   -4.0981    0.0000 O   0  0  0  0  0  0  0  0  0  0  0  0
    7.3301   -4.9641    0.0000 C   0  0  0  0  0  0  0  0  0  0  0  0
    7.8301   -5.8301    0.0000 O   0  0  0  0  0  0  0  0  0  0  0  0
    3.4641   -2.0000    0.0000 C   0  0  2  0  0  0  0  0  0  0  0  0
    3.4641   -3.0000    0.0000 O   0  0  0  0  0  0  0  0  0  0  0  0
    2.5981   -1.5000    0.0000 C   0  0  0  0  0  0  0  0  0  0  0  0
    2.5981   -0.5000    0.0000 O   0  0  0  0  0  0  0  0  0  0  0  0
    1.7321   -2.0000    0.0000 C   0  0  2  0  0  0  0  0  0  0  0  0
    1.7321   -3.0000    0.0000 C   0  0  0  0  0  0  0  0  0  0  0  0
    0.8660   -3.5000    0.0000 C   0  0  0  0  0  0  0  0  0  0  0  0
    0.8660   -4.5000    0.0000 O   0  0  0  0  0  0  0  0  0  0  0  0
    0.8660   -1.5000    0.0000 C   0  0  0  0  0  0  0  0  0  0  0  0
    0.0000   -2.0000    0.0000 O   0  0  0  0  0  0  0  0  0  0  0  0
    0.8660   -0.5000    0.0000 C   0  0  0  0  0  0  0  0  0  0  0  0
    1.7321   -0.0000    0.0000 C   0  0  0  0  0  0  0  0  0  0  0  0
    1.7321    1.0000    0.0000 C   0  0  0  0  0  0  0  0  0  0  0  0
    0.8660    1.5000    0.0000 C   0  0  0  0  0  0  0  0  0  0  0  0
    0.0000    1.0000    0.0000 C   0  0  0  0  0  0  0  0  0  0  0  0
   -0.0000   -0.0000    0.0000 C   0  0  0  0  0  0  0  0  0  0  0  0
   -0.8660   -0.5000    0.0000 O   0  5  0  0  0  0  0  0  0  0  0  0
  1  2  1  0  0  0  0
  2  3  2  0  0  0  0
  2  4  1  0  0  0  0
  4  5  1  0  0  0  0
  5  6  1  0  0  0  0
  5  7  1  0  0  0  0
  5 15  1  0  0  0  0
  7  8  2  3  0  0  0
  8  9  1  0  0  0  0
  9 10  1  0  0  0  0
 10 11  1  0  0  0  0
 11 12  2  0  0  0  0
 11 13  1  0  0  0  0
 13 14  1  0  0  0  0
 15 16  1  6  0  0  0
 15 17  1  0  0  0  0
 17 18  2  0  0  0  0
 17 19  1  0  0  0  0
 19 20  1  6  0  0  0
 19 23  1  0  0  0  0
 20 21  1  0  0  0  0
 21 22  1  0  0  0  0
 23 24  2  0  0  0  0
 23 25  1  0  0  0  0
 25 30  2  0  0  0  0
 25 26  1  0  0  0  0
 26 27  2  0  0  0  0
 27 28  1  0  0  0  0
 28 29  2  0  0  0  0
 29 30  1  0  0  0  0
 30 31  1  0  0  0  0
M  CHG  1  31  -1
M  END
$$$$
