
 OpenBabel03202621362D

 23 22  0  0  0  0  0  0  0  0999 V2000
    6.0622   -1.5000    0.0000 C   0  0  0  0  0  0  0  0  0  0  0  0
    6.0622   -0.5000    0.0000 S   0  0  0  0  0  0  0  0  0  0  0  0
    5.4091    0.4309   -1.3391 C   0  0  0  0  0  0  0  0  0  0  0  0
    3.9917    0.5082   -0.9057 C   0  0  0  0  0  0  0  0  0  0  0  0
    3.8803    1.4665    0.3282 C   0  0  0  0  0  0  0  0  0  0  0  0
    2.6399    1.2018    0.9587 N   0  0  0  0  0  0  0  0  0  0  0  0
    1.6460    1.1596    0.0023 C   0  0  0  0  0  0  0  0  0  0  0  0
    1.1812    2.4840   -0.9217 S   0  0  0  0  0  0  0  0  0  0  0  0
    0.8660   -0.5000    0.0000 S   0  0  0  0  0  0  0  0  0  0  0  0
    0.0000    0.0000    0.0000 C   0  0  0  0  0  0  0  0  0  0  0  0
    5.3624   -1.6744    0.8400 H   0  0  0  0  0  0  0  0  0  0  0  0
    7.0895   -1.6715    0.3737 H   0  0  0  0  0  0  0  0  0  0  0  0
    6.0622   -2.5700    0.0000 H   0  0  0  0  0  0  0  0  0  0  0  0
    5.8663    1.4317   -1.2920 H   0  0  0  0  0  0  0  0  0  0  0  0
    5.5647    0.0285   -2.3528 H   0  0  0  0  0  0  0  0  0  0  0  0
    3.6047   -0.4941   -0.6865 H   0  0  0  0  0  0  0  0  0  0  0  0
    3.3948    0.8497   -1.7555 H   0  0  0  0  0  0  0  0  0  0  0  0
    3.9637    2.5035    0.0089 H   0  0  0  0  0  0  0  0  0  0  0  0
    4.6291    1.3145    1.1124 H   0  0  0  0  0  0  0  0  0  0  0  0
    2.6493    0.3896    1.5594 H   0  0  0  0  0  0  0  0  0  0  0  0
   -0.2271   -0.0293    1.0903 H   0  0  0  0  0  0  0  0  0  0  0  0
   -0.6417   -0.7728   -0.4683 H   0  0  0  0  0  0  0  0  0  0  0  0
   -0.9266    0.5350    0.0000 H   0  0  0  0  0  0  0  0  0  0  0  0
  1  2  1  0  0  0  0
  1 11  1  0  0  0  0
  1 12  1  0  0  0  0
  1 13  1  0  0  0  0
  2  3  1  0  0  0  0
  3  4  1  0  0  0  0
  3 14  1  0  0  0  0
  3 15  1  0  0  0  0
  4  5  1  0  0  0  0
  4 16  1  0  0  0  0
  4 17  1  0  0  0  0
  5  6  1  0  0  0  0
  5 18  1  0  0  0  0
  5 19  1  0  0  0  0
  6  7  1  0  0  0  0
  6 20  1  0  0  0  0
  7  8  2  0  0  0  0
  7  9  1  0  0  0  0
  9 10  1  0  0  0  0
 10 21  1  0  0  0  0
 10 22  1  0  0  0  0
 10 23  1  0  0  0  0
M  END
$$$$
