
 OpenBabel03202621302D

 14 14  0  0  0  0  0  0  0  0999 V2000
    2.5032   -0.9479    0.0000 C   0  0  0  0  0  0  0  0  0  0  0  0
    1.7601   -0.2788    0.0000 S   0  0  0  0  0  0  0  0  0  0  0  0
    0.1124   -0.7567    0.0000 C   0  0  0  0  0  0  0  0  0  0  0  0
   -0.2789   -2.0726    0.0000 N   0  0  0  0  0  0  0  0  0  0  0  0
   -1.5970   -2.1163    0.0000 C   0  0  0  0  0  0  0  0  0  0  0  0
   -2.4059   -0.6073    0.0000 S   0  0  0  0  0  0  0  0  0  0  0  0
   -0.8903    0.1815    0.0000 C   0  0  0  0  0  0  0  0  0  0  0  0
   -0.7392    1.6150    0.0000 C   0  0  0  0  0  0  0  0  0  0  0  0
   -1.6474    2.4431    0.0000 O   0  0  0  0  0  0  0  0  0  0  0  0
    2.1067   -1.9688   -0.0000 H   0  0  0  0  0  0  0  0  0  0  0  0
    3.4344   -0.3739   -0.0000 H   0  0  0  0  0  0  0  0  0  0  0  0
    3.2984   -1.6639    0.0000 H   0  0  0  0  0  0  0  0  0  0  0  0
   -2.1241   -3.0604    0.0000 H   0  0  0  0  0  0  0  0  0  0  0  0
    0.3017    1.9838    0.0000 H   0  0  0  0  0  0  0  0  0  0  0  0
  1  2  1  0  0  0  0
  1 10  1  0  0  0  0
  1 11  1  0  0  0  0
  1 12  1  0  0  0  0
  2  3  1  0  0  0  0
  3  7  2  0  0  0  0
  3  4  1  0  0  0  0
  4  5  2  0  0  0  0
  5  6  1  0  0  0  0
  5 13  1  0  0  0  0
  6  7  1  0  0  0  0
  7  8  1  0  0  0  0
  8  9  2  0  0  0  0
  8 14  1  0  0  0  0
M  END
$$$$
