
 OpenBabel03202621282D

 16 17  0  0  1  0  0  0  0  0999 V2000
   -0.5507   -1.6948    0.0000 C   0  0  0  0  0  0  0  0  0  0  0  0
   -0.7071   -0.7071    0.0000 C   0  0  0  0  0  0  0  0  0  0  0  0
   -1.5981   -0.2531    0.0000 N   0  0  0  0  0  0  0  0  0  0  0  0
   -1.4417    0.7346    0.0000 C   0  0  0  0  0  0  0  0  0  0  0  0
   -2.1488    1.4417    0.0000 C   0  0  0  0  0  0  0  0  0  0  0  0
   -3.1147    1.1829    0.0000 C   0  0  3  0  0  0  0  0  0  0  0  0
   -3.2452    0.1914    0.0000 O   0  0  0  0  0  0  0  0  0  0  0  0
   -3.9807    0.6829    0.0000 C   0  0  0  0  0  0  0  0  0  0  0  0
   -4.8468    1.1829    0.0000 C   0  0  0  0  0  0  0  0  0  0  0  0
   -4.8468    2.1829    0.0000 O   0  0  0  0  0  0  0  0  0  0  0  0
   -3.9807    2.6829    0.0000 C   0  0  0  0  0  0  0  0  0  0  0  0
   -3.1147    2.1829    0.0000 C   0  0  0  0  0  0  0  0  0  0  0  0
   -2.2487    2.6829    0.0000 O   0  0  0  0  0  0  0  0  0  0  0  0
   -0.4540    0.8910    0.0000 O   0  0  0  0  0  0  0  0  0  0  0  0
   -0.0000   -0.0000    0.0000 C   0  0  0  0  0  0  0  0  0  0  0  0
    0.9877   -0.1564    0.0000 C   0  0  0  0  0  0  0  0  0  0  0  0
  1  2  1  0  0  0  0
  2 15  2  0  0  0  0
  2  3  1  0  0  0  0
  3  4  2  0  0  0  0
  4  5  1  0  0  0  0
  4 14  1  0  0  0  0
  5  6  1  0  0  0  0
  6 12  1  0  0  0  0
  6  7  1  0  0  0  0
  6  8  1  0  0  0  0
  8  9  1  0  0  0  0
  9 10  1  0  0  0  0
 10 11  1  0  0  0  0
 11 12  2  0  0  0  0
 12 13  1  0  0  0  0
 14 15  1  0  0  0  0
 15 16  1  0  0  0  0
M  END
$$$$
