
 OpenBabel03202621342D

 26 26  0  0  1  0  0  0  0  0999 V2000
   -1.9319   -0.4824    0.0000 C   0  0  0  0  0  0  0  0  0  0  0  0
   -1.6730   -1.4483    0.0000 S   0  0  0  0  0  0  0  0  0  0  0  0
   -0.9374   -2.6989   -0.0037 C   0  0  0  0  0  0  0  0  0  0  0  0
   -1.5082   -3.7121   -0.0012 O   0  0  0  0  0  0  0  0  0  0  0  0
   -0.1214   -0.8022    0.0411 C   0  0  1  0  0  0  0  0  0  0  0  0
    0.1862    1.0161   -0.0036 C   0  0  0  0  0  0  0  0  0  0  0  0
    1.5102    0.5466    0.0009 C   0  0  0  0  0  0  0  0  0  0  0  0
    1.0000   -1.0000    0.0000 N   0  0  0  0  0  0  0  0  0  0  0  0
    1.7071   -1.7071    0.0000 C   0  0  0  0  0  0  0  0  0  0  0  0
    1.4483   -2.6730    0.0000 C   0  0  0  0  0  0  0  0  0  0  0  0
    2.6730   -1.4483    0.0000 C   0  0  0  0  0  0  0  0  0  0  0  0
   -1.7059    0.6043    0.0005 H   0  0  0  0  0  0  0  0  0  0  0  0
   -3.0341   -0.5997   -0.0000 H   0  0  0  0  0  0  0  0  0  0  0  0
   -2.2089    0.5511    0.0000 H   0  0  0  0  0  0  0  0  0  0  0  0
   -0.4513    0.1926   -0.0134 H   0  0  0  0  0  0  0  0  0  0  0  0
   -0.5919    1.8453    0.0006 H   0  0  0  0  0  0  0  0  0  0  0  0
    0.6462    2.0295    0.0024 H   0  0  0  0  0  0  0  0  0  0  0  0
    2.1007    1.5320   -0.0003 H   0  0  0  0  0  0  0  0  0  0  0  0
    2.5932    0.8225   -0.0001 H   0  0  0  0  0  0  0  0  0  0  0  0
    2.4637   -2.4637    0.0000 H   0  0  0  0  0  0  0  0  0  0  0  0
    0.5582   -3.0874    0.0000 H   0  0  0  0  0  0  0  0  0  0  0  0
    2.2905   -3.7787    0.0000 H   0  0  0  0  0  0  0  0  0  0  0  0
    1.1714   -3.7065    0.0000 H   0  0  0  0  0  0  0  0  0  0  0  0
    3.7799   -2.2743    0.0000 H   0  0  0  0  0  0  0  0  0  0  0  0
    3.0687   -0.4848   -0.0000 H   0  0  0  0  0  0  0  0  0  0  0  0
    3.7065   -1.1714    0.0000 H   0  0  0  0  0  0  0  0  0  0  0  0
  1  2  1  0  0  0  0
  1 12  1  0  0  0  0
  1 13  1  0  0  0  0
  1 14  1  0  0  0  0
  2  3  1  0  0  0  0
  3  4  2  0  0  0  0
  5  3  1  0  0  0  0
  5  6  1  0  0  0  0
  5  8  1  0  0  0  0
  5 15  1  6  0  0  0
  6  7  1  0  0  0  0
  6 16  1  0  0  0  0
  6 17  1  0  0  0  0
  7  8  1  0  0  0  0
  7 18  1  0  0  0  0
  7 19  1  0  0  0  0
  8  9  1  0  0  0  0
  9 10  1  0  0  0  0
  9 11  1  0  0  0  0
  9 20  1  0  0  0  0
 10 21  1  0  0  0  0
 10 22  1  0  0  0  0
 10 23  1  0  0  0  0
 11 24  1  0  0  0  0
 11 25  1  0  0  0  0
 11 26  1  0  0  0  0
M  END
$$$$
