
 OpenBabel03202621302D

 12 11  0  0  0  0  0  0  0  0999 V2000
    2.5981   -1.5000    0.0000 C   0  0  0  0  0  0  0  0  0  0  0  0
    2.5981   -0.5000    0.0000 O   0  0  0  0  0  0  0  0  0  0  0  0
    1.9999    0.5704    0.0000 C   0  0  0  0  0  0  0  0  0  0  0  0
    2.2536    1.7466   -0.0000 O   0  0  0  0  0  0  0  0  0  0  0  0
    0.8660   -0.5000    0.0000 S   0  0  0  0  0  0  0  0  0  0  0  0
    0.0000    0.0000    0.0000 C   0  0  0  0  0  0  0  0  0  0  0  0
    1.7112   -2.2379    0.0000 H   0  0  0  0  0  0  0  0  0  0  0  0
    3.6700   -1.7635    0.0000 H   0  0  0  0  0  0  0  0  0  0  0  0
    2.5981   -2.5700    0.0000 H   0  0  0  0  0  0  0  0  0  0  0  0
    0.0769    1.1019   -0.0000 H   0  0  0  0  0  0  0  0  0  0  0  0
   -0.7877   -0.7623   -0.0000 H   0  0  0  0  0  0  0  0  0  0  0  0
   -0.9266    0.5350    0.0000 H   0  0  0  0  0  0  0  0  0  0  0  0
  1  2  1  0  0  0  0
  1  7  1  0  0  0  0
  1  8  1  0  0  0  0
  1  9  1  0  0  0  0
  2  3  1  0  0  0  0
  3  4  2  0  0  0  0
  3  5  1  0  0  0  0
  5  6  1  0  0  0  0
  6 10  1  0  0  0  0
  6 11  1  0  0  0  0
  6 12  1  0  0  0  0
M  END
$$$$
