
 OpenBabel03202621282D

 19 20  0  0  1  0  0  0  0  0999 V2000
   -0.2788   -1.7601    0.0000 C   0  0  0  0  0  0  0  0  0  0  0  0
   -0.5878   -0.8090    0.0000 C   0  0  0  0  0  0  0  0  0  0  0  0
   -1.5388   -0.5000    0.0000 C   0  0  0  0  0  0  0  0  0  0  0  0
   -1.5388    0.5000    0.0000 N   0  0  0  0  0  0  0  0  0  0  0  0
   -2.3479    1.0878    0.0000 C   0  0  0  0  0  0  0  0  0  0  0  0
   -3.2614    0.6810    0.0000 C   0  0  1  0  0  0  0  0  0  0  0  0
   -3.4693   -0.2971    0.0000 C   0  0  0  0  0  0  0  0  0  0  0  0
   -4.4638   -0.4016    0.0000 C   0  0  0  0  0  0  0  0  0  0  0  0
   -4.8706    0.5119    0.0000 C   0  0  0  0  0  0  0  0  0  0  0  0
   -4.1274    1.1810    0.0000 N   0  0  0  0  0  0  0  0  0  0  0  0
   -4.2320    2.1756    0.0000 C   0  0  0  0  0  0  0  0  0  0  0  0
   -3.4229    2.7634    0.0000 O   0  0  0  0  0  0  0  0  0  0  0  0
   -5.1455    2.5823    0.0000 O   0  0  0  0  0  0  0  0  0  0  0  0
   -5.9545    1.9945    0.0000 C   0  0  0  0  0  0  0  0  0  0  0  0
   -6.3613    1.0810    0.0000 C   0  0  0  0  0  0  0  0  0  0  0  0
   -5.3667    1.1855    0.0000 C   0  0  0  0  0  0  0  0  0  0  0  0
   -6.8681    2.4013    0.0000 C   0  0  0  0  0  0  0  0  0  0  0  0
   -0.5878    0.8090    0.0000 N   0  0  0  0  0  0  0  0  0  0  0  0
   -0.0000   -0.0000    0.0000 N   0  0  0  0  0  0  0  0  0  0  0  0
  1  2  1  0  0  0  0
  2 19  1  0  0  0  0
  2  3  2  0  0  0  0
  3  4  1  0  0  0  0
  4  5  1  0  0  0  0
  4 18  1  0  0  0  0
  6  5  1  1  0  0  0
  6  7  1  0  0  0  0
  6 10  1  0  0  0  0
  7  8  1  0  0  0  0
  8  9  1  0  0  0  0
  9 10  1  0  0  0  0
 10 11  1  0  0  0  0
 11 12  2  0  0  0  0
 11 13  1  0  0  0  0
 13 14  1  0  0  0  0
 14 15  1  0  0  0  0
 14 16  1  0  0  0  0
 14 17  1  0  0  0  0
 18 19  2  0  0  0  0
M  END
$$$$
