
 OpenBabel03202621302D

 19 19  0  0  1  0  0  0  0  0999 V2000
    1.2588    0.9659    0.0000 C   0  0  0  0  0  0  0  0  0  0  0  0
    1.0000    0.0000    0.0000 C   0  0  0  0  0  0  0  0  0  0  0  0
    1.9968   -0.0802    0.0000 C   0  0  0  0  0  0  0  0  0  0  0  0
    0.1771   -0.7310    0.9191 O   0  0  0  0  0  0  0  0  0  0  0  0
   -0.4036   -0.5843   -0.3721 C   0  0  2  0  0  0  0  0  0  0  0  0
   -1.7291    0.1631   -0.2902 C   0  0  0  0  0  0  0  0  0  0  0  0
   -1.6582    1.3980    0.4578 O   0  0  0  0  0  0  0  0  0  0  0  0
   -1.6092    2.5490   -0.2514 C   0  0  0  0  0  0  0  0  0  0  0  0
   -1.5821    2.6570   -1.4726 O   0  0  0  0  0  0  0  0  0  0  0  0
    0.7492    1.3368   -0.9485 H   0  0  0  0  0  0  0  0  0  0  0  0
    0.6910    1.3772    0.8954 H   0  0  0  0  0  0  0  0  0  0  0  0
    1.5357    1.9994    0.0000 H   0  0  0  0  0  0  0  0  0  0  0  0
    2.1167   -0.8667   -0.8114 H   0  0  0  0  0  0  0  0  0  0  0  0
    2.2180   -0.6536    0.9677 H   0  0  0  0  0  0  0  0  0  0  0  0
    3.0634   -0.1660    0.0000 H   0  0  0  0  0  0  0  0  0  0  0  0
   -0.4475   -1.4347   -1.0385 H   0  0  0  0  0  0  0  0  0  0  0  0
   -2.4362   -0.4643    0.2604 H   0  0  0  0  0  0  0  0  0  0  0  0
   -2.1553    0.3253   -1.2844 H   0  0  0  0  0  0  0  0  0  0  0  0
   -1.5675    3.4075    0.4432 H   0  0  0  0  0  0  0  0  0  0  0  0
  1  2  1  0  0  0  0
  1 10  1  0  0  0  0
  1 11  1  0  0  0  0
  1 12  1  0  0  0  0
  2  5  1  0  0  0  0
  2  3  1  0  0  0  0
  2  4  1  0  0  0  0
  3 13  1  0  0  0  0
  3 14  1  0  0  0  0
  3 15  1  0  0  0  0
  4  5  1  0  0  0  0
  5  6  1  0  0  0  0
  5 16  1  1  0  0  0
  6  7  1  0  0  0  0
  6 17  1  0  0  0  0
  6 18  1  0  0  0  0
  7  8  1  0  0  0  0
  8  9  2  0  0  0  0
  8 19  1  0  0  0  0
M  END
$$$$
