
 OpenBabel03202621282D

 14 15  0  0  0  0  0  0  0  0999 V2000
    0.4383   -1.6357    0.0000 C   0  0  0  0  0  0  0  0  0  0  0  0
   -0.2948   -0.9556    0.0000 C   0  0  0  0  0  0  0  0  0  0  0  0
   -1.2256   -1.3209    0.0000 N   0  0  0  0  0  0  0  0  0  0  0  0
   -2.0917   -0.8209    0.0000 C   0  0  0  0  0  0  0  0  0  0  0  0
   -2.9860   -1.2682    0.0000 N   0  0  0  0  0  0  0  0  0  0  0  0
   -3.6878   -0.5559    0.0000 O   0  0  0  0  0  0  0  0  0  0  0  0
   -3.2272    0.3317    0.0000 N   0  0  0  0  0  0  0  0  0  0  0  0
   -2.2407    0.1679    0.0000 C   0  0  0  0  0  0  0  0  0  0  0  0
   -1.5605    0.9010    0.0000 N   0  0  0  0  0  0  0  0  0  0  0  0
   -0.5633    0.8262    0.0000 C   0  0  0  0  0  0  0  0  0  0  0  0
   -0.0633    1.6923    0.0000 S   0  0  0  0  0  0  0  0  0  0  0  0
    0.9367    1.6923    0.0000 C   0  0  0  0  0  0  0  0  0  0  0  0
    1.4367    2.5583    0.0000 O   0  0  0  0  0  0  0  0  0  0  0  0
    0.0000    0.0000    0.0000 C   0  0  0  0  0  0  0  0  0  0  0  0
  1  2  1  0  0  0  0
  2 14  1  0  0  0  0
  2  3  2  0  0  0  0
  3  4  1  0  0  0  0
  4  8  1  0  0  0  0
  4  5  2  0  0  0  0
  5  6  1  0  0  0  0
  6  7  1  0  0  0  0
  7  8  2  0  0  0  0
  8  9  1  0  0  0  0
  9 10  1  0  0  0  0
 10 11  1  0  0  0  0
 10 14  2  0  0  0  0
 11 12  1  0  0  0  0
 12 13  2  0  0  0  0
M  END
$$$$
