
 OpenBabel03202621312D

 18 18  0  0  1  0  0  0  0  0999 V2000
    2.5032   -0.9479    0.0000 C   0  0  0  0  0  0  0  0  0  0  0  0
    1.7601   -0.2788    0.0000 S   0  0  0  0  0  0  0  0  0  0  0  0
    0.2818   -1.1214   -0.6598 C   0  0  3  0  0  0  0  0  0  0  0  0
   -0.0452   -2.4740   -0.0267 C   0  0  0  0  0  0  0  0  0  0  0  0
   -1.5187   -2.5695   -0.0636 N   0  0  0  0  0  0  0  0  0  0  0  0
   -1.9878   -1.1987    0.0117 N   0  0  0  0  0  0  0  0  0  0  0  0
   -0.9228   -0.3593   -0.3476 N   0  0  0  0  0  0  0  0  0  0  0  0
   -1.1989    0.9237   -0.7782 C   0  0  0  0  0  0  0  0  0  0  0  0
   -2.2659    1.5159   -0.6746 O   0  0  0  0  0  0  0  0  0  0  0  0
    2.5000   -1.2142    1.0754 H   0  0  0  0  0  0  0  0  0  0  0  0
    3.3527   -0.2599   -0.1716 H   0  0  0  0  0  0  0  0  0  0  0  0
    3.2984   -1.6639    0.0000 H   0  0  0  0  0  0  0  0  0  0  0  0
    0.3501   -1.1872   -1.7530 H   0  0  0  0  0  0  0  0  0  0  0  0
    0.4240   -3.3058   -0.5612 H   0  0  0  0  0  0  0  0  0  0  0  0
    0.2663   -2.5256    1.0238 H   0  0  0  0  0  0  0  0  0  0  0  0
   -1.8103   -2.9546   -0.9659 H   0  0  0  0  0  0  0  0  0  0  0  0
   -2.2909   -0.9413    0.9608 H   0  0  0  0  0  0  0  0  0  0  0  0
   -0.3156    1.4163   -1.2179 H   0  0  0  0  0  0  0  0  0  0  0  0
  1  2  1  0  0  0  0
  1 10  1  0  0  0  0
  1 11  1  0  0  0  0
  1 12  1  0  0  0  0
  2  3  1  0  0  0  0
  3  7  1  0  0  0  0
  3  4  1  0  0  0  0
  3 13  1  0  0  0  0
  4  5  1  0  0  0  0
  4 14  1  0  0  0  0
  4 15  1  0  0  0  0
  5  6  1  0  0  0  0
  5 16  1  0  0  0  0
  6  7  1  0  0  0  0
  6 17  1  0  0  0  0
  7  8  1  0  0  0  0
  8  9  2  0  0  0  0
  8 18  1  0  0  0  0
M  END
$$$$
