
 OpenBabel03202621342D

 33 34  0  0  1  0  0  0  0  0999 V2000
    5.2812   -4.8090    0.0000 C   0  0  0  0  0  0  0  0  0  0  0  0
    4.4152   -4.3090    0.0000 S   0  0  0  0  0  0  0  0  0  0  0  0
    4.6747   -3.1904   -1.3574 C   0  0  0  0  0  0  0  0  0  0  0  0
    5.2812   -2.8090    0.0000 C   0  0  2  0  0  0  0  0  0  0  0  0
    6.9009   -2.9128   -0.3205 O   0  0  0  0  0  0  0  0  0  0  0  0
    5.2812   -1.8090    0.0000 C   0  0  0  0  0  0  0  0  0  0  0  0
    4.1104   -1.1041    0.6505 O   0  0  0  0  0  0  0  0  0  0  0  0
    2.8042   -1.4717    0.2084 C   0  0  0  0  0  0  0  0  0  0  0  0
    1.6484   -0.5400    0.4906 C   0  0  0  0  0  0  0  0  0  0  0  0
    1.7687    0.8573    0.3704 C   0  0  0  0  0  0  0  0  0  0  0  0
    0.6214    1.6637    0.2937 C   0  0  0  0  0  0  0  0  0  0  0  0
   -0.6130    1.0438    0.3291 C   0  0  0  0  0  0  0  0  0  0  0  0
   -0.7350   -0.3137    0.4827 C   0  0  0  0  0  0  0  0  0  0  0  0
    0.3716   -1.1278    0.5864 C   0  0  0  0  0  0  0  0  0  0  0  0
   -2.0254   -0.7370    0.4428 O   0  0  0  0  0  0  0  0  0  0  0  0
   -2.6988    0.5014    0.1454 C   0  0  0  0  0  0  0  0  0  0  0  0
   -1.8198    1.6473    0.1616 O   0  0  0  0  0  0  0  0  0  0  0  0
    5.0509   -5.5961   -0.7749 H   0  0  0  0  0  0  0  0  0  0  0  0
    5.1698   -5.3821    0.9708 H   0  0  0  0  0  0  0  0  0  0  0  0
    6.2078   -5.3440    0.0000 H   0  0  0  0  0  0  0  0  0  0  0  0
    5.3458   -3.5520   -2.1471 H   0  0  0  0  0  0  0  0  0  0  0  0
    3.6870   -2.9315   -1.7227 H   0  0  0  0  0  0  0  0  0  0  0  0
    5.2812   -3.8790    0.0000 H   0  0  0  0  0  0  0  0  0  0  0  0
    7.3034   -3.0766    0.5546 H   0  0  0  0  0  0  0  0  0  0  0  0
    6.0382   -1.3326    0.6517 H   0  0  0  0  0  0  0  0  0  0  0  0
    5.4390   -1.1938   -0.9089 H   0  0  0  0  0  0  0  0  0  0  0  0
    2.7955   -1.5204   -0.8797 H   0  0  0  0  0  0  0  0  0  0  0  0
    2.5587   -2.4395    0.6546 H   0  0  0  0  0  0  0  0  0  0  0  0
    2.7522    1.3107    0.2694 H   0  0  0  0  0  0  0  0  0  0  0  0
    0.7010    2.7346    0.1565 H   0  0  0  0  0  0  0  0  0  0  0  0
    0.2414   -2.2047    0.6448 H   0  0  0  0  0  0  0  0  0  0  0  0
   -3.1507    0.4189   -0.8518 H   0  0  0  0  0  0  0  0  0  0  0  0
   -3.4954    0.6540    0.8798 H   0  0  0  0  0  0  0  0  0  0  0  0
  1  2  1  0  0  0  0
  1 18  1  0  0  0  0
  1 19  1  0  0  0  0
  1 20  1  0  0  0  0
  2  3  1  0  0  0  0
  3  4  1  0  0  0  0
  3 21  1  0  0  0  0
  3 22  1  0  0  0  0
  4  5  1  0  0  0  0
  4  6  1  0  0  0  0
  4 23  1  6  0  0  0
  5 24  1  0  0  0  0
  6  7  1  0  0  0  0
  6 25  1  0  0  0  0
  6 26  1  0  0  0  0
  7  8  1  0  0  0  0
  8  9  1  0  0  0  0
  8 27  1  0  0  0  0
  8 28  1  0  0  0  0
  9 14  2  0  0  0  0
  9 10  1  0  0  0  0
 10 11  2  0  0  0  0
 10 29  1  0  0  0  0
 11 12  1  0  0  0  0
 11 30  1  0  0  0  0
 12 17  1  0  0  0  0
 12 13  2  0  0  0  0
 13 14  1  0  0  0  0
 13 15  1  0  0  0  0
 14 31  1  0  0  0  0
 15 16  1  0  0  0  0
 16 17  1  0  0  0  0
 16 32  1  0  0  0  0
 16 33  1  0  0  0  0
M  END
$$$$
