
 OpenBabel03202621322D

 38 38  0  0  1  0  0  0  0  0999 V2000
   -2.5981   -1.5000    0.0000 C   0  0  0  0  0  0  0  0  0  0  0  0
   -1.7321   -2.0000    0.0000 C   0  0  0  0  0  0  0  0  0  0  0  0
   -0.6285   -1.5803   -0.6112 C   0  0  0  0  0  0  0  0  0  0  0  0
   -0.5923   -0.3108   -1.3216 C   0  0  0  0  0  0  0  0  0  0  0  0
   -1.6771    0.6326   -1.3785 C   0  0  0  0  0  0  0  0  0  0  0  0
   -1.5376    1.8607   -1.9633 C   0  0  0  0  0  0  0  0  0  0  0  0
   -0.2516    2.2251   -2.2285 C   0  0  0  0  0  0  0  0  0  0  0  0
   -0.0779    3.0838   -3.2778 O   0  0  0  0  0  0  0  0  0  0  0  0
    0.1874    4.4580   -2.9852 C   0  0  0  0  0  0  0  0  0  0  0  0
    0.6371    4.7708   -1.5720 C   0  0  1  0  0  0  0  0  0  0  0  0
    1.4416    6.0964   -1.4080 C   0  0  0  0  0  0  0  0  0  0  0  0
    0.7073    7.2711   -1.7110 O   0  0  0  0  0  0  0  0  0  0  0  0
   -0.8660    4.5000    0.0000 S   0  0  0  0  0  0  0  0  0  0  0  0
   -0.8660    5.5000    0.0000 C   0  0  0  0  0  0  0  0  0  0  0  0
    0.8160    1.4069   -1.6926 C   0  0  0  0  0  0  0  0  0  0  0  0
    0.8660    1.5000    0.0000 O   0  0  0  0  0  0  0  0  0  0  0  0
    0.8660    2.5000    0.0000 C   0  0  0  0  0  0  0  0  0  0  0  0
    0.6690    0.0506   -1.7366 C   0  0  0  0  0  0  0  0  0  0  0  0
   -3.1419   -2.1371   -0.7393 H   0  0  0  0  0  0  0  0  0  0  0  0
   -2.9474   -1.7692    1.0252 H   0  0  0  0  0  0  0  0  0  0  0  0
   -3.5247   -0.9650    0.0000 H   0  0  0  0  0  0  0  0  0  0  0  0
   -1.5707   -2.9823    0.4606 H   0  0  0  0  0  0  0  0  0  0  0  0
    0.2825   -2.1739   -0.5467 H   0  0  0  0  0  0  0  0  0  0  0  0
   -2.6459    0.4864   -0.9436 H   0  0  0  0  0  0  0  0  0  0  0  0
   -2.3869    2.4999   -2.1613 H   0  0  0  0  0  0  0  0  0  0  0  0
    1.0443    4.6825   -3.6449 H   0  0  0  0  0  0  0  0  0  0  0  0
   -0.6262    5.1089   -3.3253 H   0  0  0  0  0  0  0  0  0  0  0  0
    1.4718    4.0737   -1.4654 H   0  0  0  0  0  0  0  0  0  0  0  0
    1.8267    6.1657   -0.3816 H   0  0  0  0  0  0  0  0  0  0  0  0
    2.3148    6.0784   -2.0691 H   0  0  0  0  0  0  0  0  0  0  0  0
    1.2192    8.0178   -1.3476 H   0  0  0  0  0  0  0  0  0  0  0  0
   -0.4936    5.6717    1.0285 H   0  0  0  0  0  0  0  0  0  0  0  0
   -1.9592    5.6709    0.0028 H   0  0  0  0  0  0  0  0  0  0  0  0
   -0.8660    6.5700    0.0000 H   0  0  0  0  0  0  0  0  0  0  0  0
    1.9692    2.6714    0.0571 H   0  0  0  0  0  0  0  0  0  0  0  0
    0.5544    2.6290    1.0596 H   0  0  0  0  0  0  0  0  0  0  0  0
    0.8660    3.5700    0.0000 H   0  0  0  0  0  0  0  0  0  0  0  0
    1.5500   -0.5963   -1.5698 H   0  0  0  0  0  0  0  0  0  0  0  0
  1  2  1  0  0  0  0
  1 19  1  0  0  0  0
  1 20  1  0  0  0  0
  1 21  1  0  0  0  0
  2  3  2  3  0  0  0
  2 22  1  0  0  0  0
  3  4  1  0  0  0  0
  3 23  1  0  0  0  0
  4 18  2  0  0  0  0
  4  5  1  0  0  0  0
  5  6  2  0  0  0  0
  5 24  1  0  0  0  0
  6  7  1  0  0  0  0
  6 25  1  0  0  0  0
  7  8  1  0  0  0  0
  7 15  2  0  0  0  0
  8  9  1  0  0  0  0
  9 26  1  0  0  0  0
  9 27  1  0  0  0  0
 10  9  1  0  0  0  0
 10 11  1  0  0  0  0
 10 13  1  0  0  0  0
 10 28  1  1  0  0  0
 11 12  1  0  0  0  0
 11 29  1  0  0  0  0
 11 30  1  0  0  0  0
 12 31  1  0  0  0  0
 13 14  1  0  0  0  0
 14 32  1  0  0  0  0
 14 33  1  0  0  0  0
 14 34  1  0  0  0  0
 15 16  1  0  0  0  0
 15 18  1  0  0  0  0
 16 17  1  0  0  0  0
 17 35  1  0  0  0  0
 17 36  1  0  0  0  0
 17 37  1  0  0  0  0
 18 38  1  0  0  0  0
M  END
$$$$
