
 OpenBabel03202621352D

 31 32  0  0  0  0  0  0  0  0999 V2000
   -0.6010   -4.0846   -0.0036 O   0  0  0  0  0  0  0  0  0  0  0  0
    0.3409   -3.2930    0.0071 C   0  0  0  0  0  0  0  0  0  0  0  0
    1.6330   -3.8021    0.0140 N   0  0  0  0  0  0  0  0  0  0  0  0
    2.8737   -3.1942    0.0163 C   0  0  0  0  0  0  0  0  0  0  0  0
    3.1094   -1.8766   -0.0132 C   0  0  0  0  0  0  0  0  0  0  0  0
    4.3817   -1.1364   -0.0059 C   0  0  0  0  0  0  0  0  0  0  0  0
    4.2940    0.2699   -0.0053 C   0  0  0  0  0  0  0  0  0  0  0  0
    5.4328    1.0751   -0.0037 C   0  0  0  0  0  0  0  0  0  0  0  0
    6.6872    0.4801   -0.0023 C   0  0  0  0  0  0  0  0  0  0  0  0
    6.7818   -0.9088   -0.0020 C   0  0  0  0  0  0  0  0  0  0  0  0
    7.9961   -1.4777   -0.0003 F   0  0  0  0  0  0  0  0  0  0  0  0
    5.6478   -1.7217   -0.0040 C   0  0  0  0  0  0  0  0  0  0  0  0
    0.2572   -1.9393    0.0193 O   0  0  0  0  0  0  0  0  0  0  0  0
   -0.8921   -1.0933    0.0019 C   0  0  0  0  0  0  0  0  0  0  0  0
   -2.1544   -1.5442   -0.1045 C   0  0  0  0  0  0  0  0  0  0  0  0
   -3.2943   -0.7802   -0.1349 O   0  0  0  0  0  0  0  0  0  0  0  0
   -3.1189    0.6409   -0.0279 C   0  0  0  0  0  0  0  0  0  0  0  0
   -1.7204    1.1451    0.0733 C   0  0  0  0  0  0  0  0  0  0  0  0
   -0.6346    0.3585    0.0921 C   0  0  0  0  0  0  0  0  0  0  0  0
    0.5731    0.6948    0.1804 O   0  5  0  0  0  0  0  0  0  0  0  0
    1.6174   -4.8127    0.0270 H   0  0  0  0  0  0  0  0  0  0  0  0
    3.6979   -3.8998    0.0448 H   0  0  0  0  0  0  0  0  0  0  0  0
    2.2691   -1.1944   -0.0461 H   0  0  0  0  0  0  0  0  0  0  0  0
    3.3148    0.7563   -0.0038 H   0  0  0  0  0  0  0  0  0  0  0  0
    5.3198    2.1556   -0.0025 H   0  0  0  0  0  0  0  0  0  0  0  0
    7.5844    1.0876   -0.0007 H   0  0  0  0  0  0  0  0  0  0  0  0
    5.7775   -2.7967   -0.0046 H   0  0  0  0  0  0  0  0  0  0  0  0
   -2.4194   -2.5869   -0.1846 H   0  0  0  0  0  0  0  0  0  0  0  0
   -3.6778    0.9713    0.8542 H   0  0  0  0  0  0  0  0  0  0  0  0
   -3.5958    1.0928   -0.9043 H   0  0  0  0  0  0  0  0  0  0  0  0
   -1.5790    2.2196    0.1389 H   0  0  0  0  0  0  0  0  0  0  0  0
  1  2  2  0  0  0  0
  2  3  1  0  0  0  0
  2 13  1  0  0  0  0
  3  4  1  0  0  0  0
  3 21  1  0  0  0  0
  4  5  2  3  0  0  0
  4 22  1  0  0  0  0
  5  6  1  0  0  0  0
  5 23  1  0  0  0  0
  6 12  2  0  0  0  0
  6  7  1  0  0  0  0
  7  8  2  0  0  0  0
  7 24  1  0  0  0  0
  8  9  1  0  0  0  0
  8 25  1  0  0  0  0
  9 10  2  0  0  0  0
  9 26  1  0  0  0  0
 10 11  1  0  0  0  0
 10 12  1  0  0  0  0
 12 27  1  0  0  0  0
 13 14  1  0  0  0  0
 14 19  1  0  0  0  0
 14 15  2  0  0  0  0
 15 16  1  0  0  0  0
 15 28  1  0  0  0  0
 16 17  1  0  0  0  0
 17 18  1  0  0  0  0
 17 29  1  0  0  0  0
 17 30  1  0  0  0  0
 18 19  2  0  0  0  0
 18 31  1  0  0  0  0
 19 20  1  0  0  0  0
M  CHG  1  20  -1
M  END
$$$$
