
 OpenBabel03202621312D

 16 15  0  0  0  0  0  0  0  0999 V2000
    4.3301   -1.5000    0.0000 C   0  0  0  0  0  0  0  0  0  0  0  0
    4.3301   -0.5000    0.0000 S   0  0  0  0  0  0  0  0  0  0  0  0
    2.8845    0.4342    0.1540 C   0  0  0  0  0  0  0  0  0  0  0  0
    2.9688    2.0866    0.4086 S   0  0  0  0  0  0  0  0  0  0  0  0
    1.7218   -0.2838    0.0249 N   0  0  0  0  0  0  0  0  0  0  0  0
    0.3705    0.3091   -0.0417 C   0  0  0  0  0  0  0  0  0  0  0  0
   -0.7762   -0.6967   -0.0300 C   0  0  0  0  0  0  0  0  0  0  0  0
   -0.8921   -1.2955    1.1755 F   0  0  0  0  0  0  0  0  0  0  0  0
   -0.5696   -1.6672   -0.9508 F   0  0  0  0  0  0  0  0  0  0  0  0
   -1.9524   -0.0999   -0.3141 F   0  0  0  0  0  0  0  0  0  0  0  0
    4.1598   -1.6847    1.0799 H   0  0  0  0  0  0  0  0  0  0  0  0
    5.4037   -1.6711   -0.2057 H   0  0  0  0  0  0  0  0  0  0  0  0
    4.3301   -2.5700    0.0000 H   0  0  0  0  0  0  0  0  0  0  0  0
    1.8076   -1.2604   -0.2353 H   0  0  0  0  0  0  0  0  0  0  0  0
    0.2486    1.0002    0.7987 H   0  0  0  0  0  0  0  0  0  0  0  0
    0.3279    0.8951   -0.9667 H   0  0  0  0  0  0  0  0  0  0  0  0
  1  2  1  0  0  0  0
  1 11  1  0  0  0  0
  1 12  1  0  0  0  0
  1 13  1  0  0  0  0
  2  3  1  0  0  0  0
  3  4  2  0  0  0  0
  3  5  1  0  0  0  0
  5  6  1  0  0  0  0
  5 14  1  0  0  0  0
  6  7  1  0  0  0  0
  6 15  1  0  0  0  0
  6 16  1  0  0  0  0
  7  8  1  0  0  0  0
  7  9  1  0  0  0  0
  7 10  1  0  0  0  0
M  END
$$$$
