
 OpenBabel03202621342D

 17 16  0  0  1  0  0  0  0  0999 V2000
    0.8660    1.5000    0.0000 C   0  0  0  0  0  0  0  0  0  0  0  0
    0.0000    2.0000    0.0000 C   0  0  0  0  0  0  0  0  0  0  0  0
   -0.7472    0.6989   -0.3366 C   0  0  1  0  0  0  0  0  0  0  0  0
   -1.7321    2.0000    0.0000 S   0  0  0  0  0  0  0  0  0  0  0  0
   -2.5981    1.5000    0.0000 C   0  0  0  0  0  0  0  0  0  0  0  0
   -0.6393   -0.4916    0.6426 N   0  3  0  0  0  0  0  0  0  0  0  0
   -1.6967   -0.9234    1.1232 O   0  0  0  0  0  0  0  0  0  0  0  0
    0.4666   -1.0187    0.8052 O   0  5  0  0  0  0  0  0  0  0  0  0
    1.1252    1.4745   -1.1066 H   0  0  0  0  0  0  0  0  0  0  0  0
    1.5765    2.2865    0.3929 H   0  0  0  0  0  0  0  0  0  0  0  0
    1.7926    0.9650    0.0000 H   0  0  0  0  0  0  0  0  0  0  0  0
   -0.0152    2.4369    1.0791 H   0  0  0  0  0  0  0  0  0  0  0  0
    0.0673    2.8840   -0.7396 H   0  0  0  0  0  0  0  0  0  0  0  0
   -0.6971    0.3297   -1.3745 H   0  0  0  0  0  0  0  0  0  0  0  0
   -3.2578    2.3072    0.3759 H   0  0  0  0  0  0  0  0  0  0  0  0
   -2.8013    1.4484   -1.0958 H   0  0  0  0  0  0  0  0  0  0  0  0
   -3.5247    0.9650    0.0000 H   0  0  0  0  0  0  0  0  0  0  0  0
  1  2  1  0  0  0  0
  1  9  1  0  0  0  0
  1 10  1  0  0  0  0
  1 11  1  0  0  0  0
  2 12  1  0  0  0  0
  2 13  1  0  0  0  0
  3  2  1  0  0  0  0
  3  4  1  0  0  0  0
  3  6  1  0  0  0  0
  3 14  1  1  0  0  0
  4  5  1  0  0  0  0
  5 15  1  0  0  0  0
  5 16  1  0  0  0  0
  5 17  1  0  0  0  0
  6  7  2  0  0  0  0
  6  8  1  0  0  0  0
M  CHG  2   6   1   8  -1
M  END
$$$$
