
 OpenBabel03202621342D

 25 24  0  0  0  0  0  0  0  0999 V2000
    6.9282   -1.0000    0.0000 C   0  0  0  0  0  0  0  0  0  0  0  0
    6.9282    0.0000    0.0000 C   0  0  0  0  0  0  0  0  0  0  0  0
    5.7397    0.6461   -0.6382 N   0  0  0  0  0  0  0  0  0  0  0  0
    4.4516    0.0081   -0.3803 C   0  0  0  0  0  0  0  0  0  0  0  0
    3.3244    1.0350   -0.2929 C   0  0  0  0  0  0  0  0  0  0  0  0
    2.0087    0.3056   -0.0460 C   0  0  0  0  0  0  0  0  0  0  0  0
    0.8787    1.2514    0.3205 C   0  0  0  0  0  0  0  0  0  0  0  0
   -0.2615    0.4364    0.6268 O   0  0  0  0  0  0  0  0  0  0  0  0
   -1.4703    0.9239    0.2840 C   0  0  0  0  0  0  0  0  0  0  0  0
   -2.5229    0.3287    0.4425 O   0  0  0  0  0  0  0  0  0  0  0  0
    6.3842   -1.2034    0.9573 H   0  0  0  0  0  0  0  0  0  0  0  0
    8.0094   -1.1852    0.2262 H   0  0  0  0  0  0  0  0  0  0  0  0
    6.9282   -2.0700    0.0000 H   0  0  0  0  0  0  0  0  0  0  0  0
    7.7309    0.4721   -0.5949 H   0  0  0  0  0  0  0  0  0  0  0  0
    7.0522    0.5412    0.9583 H   0  0  0  0  0  0  0  0  0  0  0  0
    5.7246    1.6307   -0.3727 H   0  0  0  0  0  0  0  0  0  0  0  0
    4.2468   -0.7042   -1.1878 H   0  0  0  0  0  0  0  0  0  0  0  0
    4.4490   -0.5453    0.5647 H   0  0  0  0  0  0  0  0  0  0  0  0
    3.5269    1.7282    0.5335 H   0  0  0  0  0  0  0  0  0  0  0  0
    3.2612    1.6294   -1.2127 H   0  0  0  0  0  0  0  0  0  0  0  0
    2.1252   -0.4312    0.7583 H   0  0  0  0  0  0  0  0  0  0  0  0
    1.7281   -0.2715   -0.9368 H   0  0  0  0  0  0  0  0  0  0  0  0
    1.1322    1.8241    1.2203 H   0  0  0  0  0  0  0  0  0  0  0  0
    0.6791    1.9472   -0.5038 H   0  0  0  0  0  0  0  0  0  0  0  0
   -1.4215    1.9337   -0.1544 H   0  0  0  0  0  0  0  0  0  0  0  0
  1  2  1  0  0  0  0
  1 11  1  0  0  0  0
  1 12  1  0  0  0  0
  1 13  1  0  0  0  0
  2  3  1  0  0  0  0
  2 14  1  0  0  0  0
  2 15  1  0  0  0  0
  3  4  1  0  0  0  0
  3 16  1  0  0  0  0
  4  5  1  0  0  0  0
  4 17  1  0  0  0  0
  4 18  1  0  0  0  0
  5  6  1  0  0  0  0
  5 19  1  0  0  0  0
  5 20  1  0  0  0  0
  6  7  1  0  0  0  0
  6 21  1  0  0  0  0
  6 22  1  0  0  0  0
  7  8  1  0  0  0  0
  7 23  1  0  0  0  0
  7 24  1  0  0  0  0
  8  9  1  0  0  0  0
  9 10  2  0  0  0  0
  9 25  1  0  0  0  0
M  END
$$$$
