
 OpenBabel03202621332D

 24 25  0  0  0  0  0  0  0  0999 V2000
    2.2578    2.4513   -0.0422 O   0  0  0  0  0  0  0  0  0  0  0  0
    1.2454    1.7605    0.1040 C   0  0  0  0  0  0  0  0  0  0  0  0
    0.0017    2.3028    0.1112 O   0  0  0  0  0  0  0  0  0  0  0  0
   -1.3781    1.8859    0.0549 C   0  0  0  0  0  0  0  0  0  0  0  0
   -1.7847    0.6619   -0.3090 C   0  0  0  0  0  0  0  0  0  0  0  0
   -3.2278    0.2923   -0.2472 C   0  0  0  0  0  0  0  0  0  0  0  0
   -4.1406    1.3759   -0.4408 O   0  0  0  0  0  0  0  0  0  0  0  0
   -3.6792    2.5828    0.0086 C   0  0  0  0  0  0  0  0  0  0  0  0
   -2.4057    2.9102    0.3197 C   0  0  0  0  0  0  0  0  0  0  0  0
   -1.9504    4.0030    0.7486 O   0  5  0  0  0  0  0  0  0  0  0  0
    1.3962    0.2870    0.2189 C   0  0  0  0  0  0  0  0  0  0  0  0
    2.4361   -0.3557   -0.3215 C   0  0  0  0  0  0  0  0  0  0  0  0
    2.2875   -1.8055   -0.0729 C   0  0  0  0  0  0  0  0  0  0  0  0
    0.8438   -1.8479    0.4058 C   0  0  0  0  0  0  0  0  0  0  0  0
    0.5274   -0.5449    0.9329 O   0  0  0  0  0  0  0  0  0  0  0  0
   -1.1062   -0.1030   -0.6228 H   0  0  0  0  0  0  0  0  0  0  0  0
   -3.4424   -0.4551   -1.0176 H   0  0  0  0  0  0  0  0  0  0  0  0
   -3.4423   -0.1763    0.7212 H   0  0  0  0  0  0  0  0  0  0  0  0
   -4.4855    3.3021    0.0626 H   0  0  0  0  0  0  0  0  0  0  0  0
    3.2511    0.1125   -0.8548 H   0  0  0  0  0  0  0  0  0  0  0  0
    2.9814   -2.1464    0.7012 H   0  0  0  0  0  0  0  0  0  0  0  0
    2.4271   -2.4088   -0.9740 H   0  0  0  0  0  0  0  0  0  0  0  0
    0.6761   -2.6104    1.1719 H   0  0  0  0  0  0  0  0  0  0  0  0
    0.1626   -2.0562   -0.4308 H   0  0  0  0  0  0  0  0  0  0  0  0
  1  2  2  0  0  0  0
  2  3  1  0  0  0  0
  2 11  1  0  0  0  0
  3  4  1  0  0  0  0
  4  9  1  0  0  0  0
  4  5  2  0  0  0  0
  5  6  1  0  0  0  0
  5 16  1  0  0  0  0
  6  7  1  0  0  0  0
  6 17  1  0  0  0  0
  6 18  1  0  0  0  0
  7  8  1  0  0  0  0
  8  9  2  0  0  0  0
  8 19  1  0  0  0  0
  9 10  1  0  0  0  0
 11 15  1  0  0  0  0
 11 12  2  0  0  0  0
 12 13  1  0  0  0  0
 12 20  1  0  0  0  0
 13 14  1  0  0  0  0
 13 21  1  0  0  0  0
 13 22  1  0  0  0  0
 14 15  1  0  0  0  0
 14 23  1  0  0  0  0
 14 24  1  0  0  0  0
M  CHG  1  10  -1
M  END
$$$$
