
 OpenBabel03202621402D

 32 33  0  0  1  0  0  0  0  0999 V2000
    3.1538    0.0829   -0.8431 O   0  5  0  0  0  0  0  0  0  0  0  0
    3.2339   -0.9871   -0.1746 C   0  0  0  0  0  0  0  0  0  0  0  0
    4.2733   -1.4096    0.5702 C   0  0  0  0  0  0  0  0  0  0  0  0
    4.4757   -2.6804    1.0405 O   0  0  0  0  0  0  0  0  0  0  0  0
    3.8856   -3.6191    0.1413 C   0  0  0  0  0  0  0  0  0  0  0  0
    2.3921   -3.4085    0.0407 C   0  0  0  0  0  0  0  0  0  0  0  0
    2.0079   -1.9607   -0.3687 C   0  0  3  0  0  0  0  0  0  0  0  0
    1.7571   -1.9726   -1.7979 O   0  0  0  0  0  0  0  0  0  0  0  0
    0.5557   -1.5915    0.3459 C   0  0  1  0  0  0  0  0  0  0  0  0
   -0.3843   -2.7761    0.0408 C   0  0  0  0  0  0  0  0  0  0  0  0
   -1.8428   -2.4882   -0.0520 C   0  0  0  0  0  0  0  0  0  0  0  0
   -2.1476   -1.0281   -0.0532 C   0  0  0  0  0  0  0  0  0  0  0  0
   -1.0000    0.0000    0.0000 C   0  0  0  0  0  0  0  0  0  0  0  0
    0.0000    0.0000    0.0000 C   0  0  1  0  0  0  0  0  0  0  0  0
    0.2396    0.8009    1.3278 O   0  0  0  0  0  0  0  0  0  0  0  0
    5.1251   -0.7801    0.7930 H   0  0  0  0  0  0  0  0  0  0  0  0
    4.3786   -3.5714   -0.8386 H   0  0  0  0  0  0  0  0  0  0  0  0
    4.0827   -4.6191    0.5448 H   0  0  0  0  0  0  0  0  0  0  0  0
    1.9836   -4.1428   -0.6646 H   0  0  0  0  0  0  0  0  0  0  0  0
    1.9855   -3.6261    1.0357 H   0  0  0  0  0  0  0  0  0  0  0  0
    2.1877   -1.1189   -2.0487 H   0  0  0  0  0  0  0  0  0  0  0  0
    0.7444   -1.5996    1.4335 H   0  0  0  0  0  0  0  0  0  0  0  0
   -0.1019   -3.2702   -0.8942 H   0  0  0  0  0  0  0  0  0  0  0  0
   -0.2448   -3.5380    0.8200 H   0  0  0  0  0  0  0  0  0  0  0  0
   -2.2428   -2.9500   -0.9647 H   0  0  0  0  0  0  0  0  0  0  0  0
   -2.3789   -2.9784    0.7698 H   0  0  0  0  0  0  0  0  0  0  0  0
   -2.8229   -0.8355    0.7933 H   0  0  0  0  0  0  0  0  0  0  0  0
   -2.7718   -0.8164   -0.9359 H   0  0  0  0  0  0  0  0  0  0  0  0
   -1.2136    0.4859   -0.9738 H   0  0  0  0  0  0  0  0  0  0  0  0
   -1.5447    0.7662    0.5955 H   0  0  0  0  0  0  0  0  0  0  0  0
    1.0700    0.0000    0.0000 H   0  0  0  0  0  0  0  0  0  0  0  0
    1.0930    1.2652    1.1802 H   0  0  0  0  0  0  0  0  0  0  0  0
  1  2  1  0  0  0  0
  2  7  1  0  0  0  0
  2  3  2  0  0  0  0
  3  4  1  0  0  0  0
  3 16  1  0  0  0  0
  4  5  1  0  0  0  0
  5  6  1  0  0  0  0
  5 17  1  0  0  0  0
  5 18  1  0  0  0  0
  6  7  1  0  0  0  0
  6 19  1  0  0  0  0
  6 20  1  0  0  0  0
  7  8  1  0  0  0  0
  7  9  1  0  0  0  0
  8 21  1  0  0  0  0
  9 10  1  0  0  0  0
  9 14  1  0  0  0  0
  9 22  1  6  0  0  0
 10 11  1  0  0  0  0
 10 23  1  0  0  0  0
 10 24  1  0  0  0  0
 11 12  1  0  0  0  0
 11 25  1  0  0  0  0
 11 26  1  0  0  0  0
 12 13  1  0  0  0  0
 12 27  1  0  0  0  0
 12 28  1  0  0  0  0
 13 14  1  0  0  0  0
 13 29  1  0  0  0  0
 13 30  1  0  0  0  0
 14 15  1  0  0  0  0
 14 31  1  6  0  0  0
 15 32  1  0  0  0  0
M  CHG  1   1  -1
M  END
$$$$
