
 OpenBabel03202621382D

 26 26  0  0  0  0  0  0  0  0999 V2000
    4.8212    1.6264    0.0000 C   0  0  0  0  0  0  0  0  0  0  0  0
    4.0780    2.2956    0.0000 C   0  0  0  0  0  0  0  0  0  0  0  0
    3.8651    3.1120   -0.8994 O   0  0  0  0  0  0  0  0  0  0  0  0
    3.0940    2.4531    1.4474 S   0  0  0  0  0  0  0  0  0  0  0  0
    1.5169    2.7967    0.5915 C   0  0  0  0  0  0  0  0  0  0  0  0
    1.3030    2.0151   -0.7172 C   0  0  0  0  0  0  0  0  0  0  0  0
    1.9008    0.6092   -0.7924 C   0  0  0  0  0  0  0  0  0  0  0  0
    1.1714   -0.3099    0.0170 N   0  0  0  0  0  0  0  0  0  0  0  0
    0.7746   -1.4891   -0.4644 C   0  0  0  0  0  0  0  0  0  0  0  0
   -0.5000   -1.5388    0.0000 C   0  0  0  0  0  0  0  0  0  0  0  0
   -1.0878   -2.3479    0.0000 C   0  0  0  0  0  0  0  0  0  0  0  0
   -0.7221   -0.4720    0.8471 N   0  0  0  0  0  0  0  0  0  0  0  0
    0.4073    0.1558    0.9967 N   0  0  0  0  0  0  0  0  0  0  0  0
    4.7093    1.2427   -1.0452 H   0  0  0  0  0  0  0  0  0  0  0  0
    5.6663    2.3571    0.0600 H   0  0  0  0  0  0  0  0  0  0  0  0
    5.6164    0.9104    0.0000 H   0  0  0  0  0  0  0  0  0  0  0  0
    0.7205    2.5902    1.3143 H   0  0  0  0  0  0  0  0  0  0  0  0
    1.4557    3.8680    0.3847 H   0  0  0  0  0  0  0  0  0  0  0  0
    1.6874    2.5987   -1.5633 H   0  0  0  0  0  0  0  0  0  0  0  0
    0.2180    1.9579   -0.9047 H   0  0  0  0  0  0  0  0  0  0  0  0
    2.9113    0.4386   -0.4464 H   0  0  0  0  0  0  0  0  0  0  0  0
    1.8947    0.2565   -1.8278 H   0  0  0  0  0  0  0  0  0  0  0  0
    1.3912   -2.1464   -1.0822 H   0  0  0  0  0  0  0  0  0  0  0  0
   -2.0498   -1.8809   -0.3189 H   0  0  0  0  0  0  0  0  0  0  0  0
   -1.0996   -2.6003    1.0895 H   0  0  0  0  0  0  0  0  0  0  0  0
   -1.7167   -3.2136    0.0000 H   0  0  0  0  0  0  0  0  0  0  0  0
  1  2  1  0  0  0  0
  1 14  1  0  0  0  0
  1 15  1  0  0  0  0
  1 16  1  0  0  0  0
  2  3  2  0  0  0  0
  2  4  1  0  0  0  0
  4  5  1  0  0  0  0
  5  6  1  0  0  0  0
  5 17  1  0  0  0  0
  5 18  1  0  0  0  0
  6  7  1  0  0  0  0
  6 19  1  0  0  0  0
  6 20  1  0  0  0  0
  7  8  1  0  0  0  0
  7 21  1  0  0  0  0
  7 22  1  0  0  0  0
  8 13  1  0  0  0  0
  8  9  1  0  0  0  0
  9 10  2  0  0  0  0
  9 23  1  0  0  0  0
 10 11  1  0  0  0  0
 10 12  1  0  0  0  0
 11 24  1  0  0  0  0
 11 25  1  0  0  0  0
 11 26  1  0  0  0  0
 12 13  2  0  0  0  0
M  END
$$$$
