
 OpenBabel03202621282D

 21 23  0  0  0  0  0  0  0  0999 V2000
    2.0000   -0.0000    0.0000 C   0  0  0  0  0  0  0  0  0  0  0  0
    1.5000   -0.8660    0.0000 O   0  0  0  0  0  0  0  0  0  0  0  0
    0.5000   -0.8660    0.0000 C   0  0  0  0  0  0  0  0  0  0  0  0
   -0.0000   -1.7321    0.0000 C   0  0  0  0  0  0  0  0  0  0  0  0
   -1.0000   -1.7321    0.0000 C   0  0  0  0  0  0  0  0  0  0  0  0
   -1.5000   -0.8660    0.0000 C   0  0  0  0  0  0  0  0  0  0  0  0
   -2.5000   -0.8660    0.0000 C   0  0  0  0  0  0  0  0  0  0  0  0
   -3.0878   -1.6750    0.0000 N   0  0  0  0  0  0  0  0  0  0  0  0
   -4.0388   -1.3660    0.0000 C   0  0  0  0  0  0  0  0  0  0  0  0
   -4.8479   -1.9538    0.0000 C   0  0  0  0  0  0  0  0  0  0  0  0
   -5.7614   -1.5471    0.0000 N   0  0  0  0  0  0  0  0  0  0  0  0
   -6.6274   -2.0471    0.0000 C   0  0  0  0  0  0  0  0  0  0  0  0
   -7.3706   -1.3779    0.0000 C   0  0  0  0  0  0  0  0  0  0  0  0
   -8.3487   -1.5859    0.0000 C   0  0  0  0  0  0  0  0  0  0  0  0
   -6.9638   -0.4644    0.0000 N   0  0  0  0  0  0  0  0  0  0  0  0
   -5.9693   -0.5689    0.0000 N   0  0  0  0  0  0  0  0  0  0  0  0
   -4.0388   -0.3660    0.0000 C   0  0  0  0  0  0  0  0  0  0  0  0
   -4.8479    0.2218    0.0000 C   0  0  0  0  0  0  0  0  0  0  0  0
   -3.0878   -0.0570    0.0000 O   0  0  0  0  0  0  0  0  0  0  0  0
   -1.0000    0.0000    0.0000 C   0  0  0  0  0  0  0  0  0  0  0  0
   -0.0000   -0.0000    0.0000 C   0  0  0  0  0  0  0  0  0  0  0  0
  1  2  1  0  0  0  0
  2  3  1  0  0  0  0
  3 21  2  0  0  0  0
  3  4  1  0  0  0  0
  4  5  2  0  0  0  0
  5  6  1  0  0  0  0
  6  7  1  0  0  0  0
  6 20  2  0  0  0  0
  7 19  1  0  0  0  0
  7  8  2  0  0  0  0
  8  9  1  0  0  0  0
  9 10  1  0  0  0  0
  9 17  2  0  0  0  0
 10 11  1  0  0  0  0
 11 16  1  0  0  0  0
 11 12  1  0  0  0  0
 12 13  2  0  0  0  0
 13 14  1  0  0  0  0
 13 15  1  0  0  0  0
 15 16  2  0  0  0  0
 17 18  1  0  0  0  0
 17 19  1  0  0  0  0
 20 21  1  0  0  0  0
M  END
$$$$
