
 OpenBabel03202621302D

 15 15  0  0  0  0  0  0  0  0999 V2000
    0.5680    4.6067    0.1139 O   0  0  0  0  0  0  0  0  0  0  0  0
   -0.3152    3.7751   -0.0282 C   0  0  0  0  0  0  0  0  0  0  0  0
   -0.1242    2.4264   -0.1006 N   0  0  0  0  0  0  0  0  0  0  0  0
    1.2010    1.8426   -0.0259 C   0  0  0  0  0  0  0  0  0  0  0  0
    1.1288    0.3523    0.0287 C   0  0  0  0  0  0  0  0  0  0  0  0
    2.1159   -0.5229    0.0640 N   0  0  0  0  0  0  0  0  0  0  0  0
    1.4809   -1.7386    0.0981 C   0  0  0  0  0  0  0  0  0  0  0  0
    0.1228   -1.5572    0.0803 C   0  0  0  0  0  0  0  0  0  0  0  0
   -0.1231   -0.2194    0.0337 O   0  0  0  0  0  0  0  0  0  0  0  0
   -1.3806    4.0469   -0.1117 H   0  0  0  0  0  0  0  0  0  0  0  0
   -0.9133    1.8076   -0.2440 H   0  0  0  0  0  0  0  0  0  0  0  0
    1.7098    2.2330    0.8611 H   0  0  0  0  0  0  0  0  0  0  0  0
    1.7618    2.1598   -0.9113 H   0  0  0  0  0  0  0  0  0  0  0  0
    2.0314   -2.6685    0.1319 H   0  0  0  0  0  0  0  0  0  0  0  0
   -0.7390   -2.2082    0.0942 H   0  0  0  0  0  0  0  0  0  0  0  0
  1  2  2  0  0  0  0
  2  3  1  0  0  0  0
  2 10  1  0  0  0  0
  3  4  1  0  0  0  0
  3 11  1  0  0  0  0
  4  5  1  0  0  0  0
  4 12  1  0  0  0  0
  4 13  1  0  0  0  0
  5  9  1  0  0  0  0
  5  6  2  0  0  0  0
  6  7  1  0  0  0  0
  7  8  2  0  0  0  0
  7 14  1  0  0  0  0
  8  9  1  0  0  0  0
  8 15  1  0  0  0  0
M  END
$$$$
