
 OpenBabel03202621312D

 19 18  0  0  0  0  0  0  0  0999 V2000
    0.8660   -1.5000    0.0000 C   0  0  0  0  0  0  0  0  0  0  0  0
    1.7321   -2.0000    0.0000 C   0  0  0  0  0  0  0  0  0  0  0  0
    3.4888   -1.6027    0.4212 C   0  0  0  0  0  0  0  0  0  0  0  0
    3.6579   -0.0642    0.1558 C   0  0  0  0  0  0  0  0  0  0  0  0
    4.8001    0.4435    0.0715 O   0  0  0  0  0  0  0  0  0  0  0  0
    2.3512    0.8735    0.0487 C   0  0  0  0  0  0  0  0  0  0  0  0
    2.2234    1.9819   -0.0168 O   0  0  0  0  0  0  0  0  0  0  0  0
    0.8660   -0.5000    0.0000 S   0  0  0  0  0  0  0  0  0  0  0  0
    0.0000    0.0000    0.0000 C   0  0  0  0  0  0  0  0  0  0  0  0
    1.7316   -1.4715   -1.3122 H   0  0  0  0  0  0  0  0  0  0  0  0
    0.0434   -2.4420   -0.1694 H   0  0  0  0  0  0  0  0  0  0  0  0
   -0.0607   -0.9650    0.0000 H   0  0  0  0  0  0  0  0  0  0  0  0
    1.4195   -3.0409    0.4140 H   0  0  0  0  0  0  0  0  0  0  0  0
    2.2510   -2.9017   -0.4873 H   0  0  0  0  0  0  0  0  0  0  0  0
    3.8827   -2.6242    0.2749 H   0  0  0  0  0  0  0  0  0  0  0  0
    4.3301   -1.6500   -0.3042 H   0  0  0  0  0  0  0  0  0  0  0  0
    0.2090    1.0858   -0.0012 H   0  0  0  0  0  0  0  0  0  0  0  0
   -1.2940   -0.4246   -0.0001 H   0  0  0  0  0  0  0  0  0  0  0  0
   -0.9266    0.5350    0.0000 H   0  0  0  0  0  0  0  0  0  0  0  0
  1  2  1  0  0  0  0
  1 10  1  0  0  0  0
  1 11  1  0  0  0  0
  1 12  1  0  0  0  0
  2  3  1  0  0  0  0
  2 13  1  0  0  0  0
  2 14  1  0  0  0  0
  3  4  1  0  0  0  0
  3 15  1  0  0  0  0
  3 16  1  0  0  0  0
  4  5  2  0  0  0  0
  4  6  1  0  0  0  0
  6  7  2  0  0  0  0
  6  8  1  0  0  0  0
  8  9  1  0  0  0  0
  9 17  1  0  0  0  0
  9 18  1  0  0  0  0
  9 19  1  0  0  0  0
M  END
$$$$
