
 OpenBabel03202621322D

 31 32  0  0  0  0  0  0  0  0999 V2000
   -1.5878   -0.8090    0.0000 C   0  0  0  0  0  0  0  0  0  0  0  0
   -1.0000    0.0000    0.0000 C   0  0  0  0  0  0  0  0  0  0  0  0
   -1.3357    1.0424    0.8798 C   0  0  0  0  0  0  0  0  0  0  0  0
   -0.7210    1.9363    0.1357 C   0  0  0  0  0  0  0  0  0  0  0  0
   -0.8183    3.3694   -0.0335 C   0  0  0  0  0  0  0  0  0  0  0  0
    0.1826    4.0661   -0.1920 O   0  0  0  0  0  0  0  0  0  0  0  0
   -2.1947    3.9907   -0.1064 C   0  0  0  0  0  0  0  0  0  0  0  0
   -3.4888    3.5649   -0.1632 C   0  0  0  0  0  0  0  0  0  0  0  0
   -3.9062    2.1166   -0.1603 C   0  0  0  0  0  0  0  0  0  0  0  0
   -5.3586    1.8326   -0.5005 C   0  0  0  0  0  0  0  0  0  0  0  0
   -6.2561    2.6545    0.2292 O   0  0  0  0  0  0  0  0  0  0  0  0
   -5.8949    3.9703    0.0965 C   0  0  0  0  0  0  0  0  0  0  0  0
   -4.6708    4.4819   -0.1498 C   0  0  0  0  0  0  0  0  0  0  0  0
   -4.3681    5.6914   -0.3407 O   0  5  0  0  0  0  0  0  0  0  0  0
    0.3090    0.9511    0.0000 C   0  0  0  0  0  0  0  0  0  0  0  0
    1.2601    1.2601    0.0000 C   0  0  0  0  0  0  0  0  0  0  0  0
   -0.1925    0.2485   -0.9836 N   0  0  0  0  0  0  0  0  0  0  0  0
   -2.6162   -0.3929   -0.1356 H   0  0  0  0  0  0  0  0  0  0  0  0
   -1.3836   -1.2314    1.0167 H   0  0  0  0  0  0  0  0  0  0  0  0
   -2.2167   -1.6746    0.0000 H   0  0  0  0  0  0  0  0  0  0  0  0
   -2.0852    1.0823    1.6592 H   0  0  0  0  0  0  0  0  0  0  0  0
   -2.0521    5.0737   -0.1203 H   0  0  0  0  0  0  0  0  0  0  0  0
   -3.7838    1.7494    0.8606 H   0  0  0  0  0  0  0  0  0  0  0  0
   -3.2978    1.5504   -0.8691 H   0  0  0  0  0  0  0  0  0  0  0  0
   -5.5823    0.7898   -0.2347 H   0  0  0  0  0  0  0  0  0  0  0  0
   -5.5555    1.9296   -1.5759 H   0  0  0  0  0  0  0  0  0  0  0  0
   -6.7623    4.6085    0.2273 H   0  0  0  0  0  0  0  0  0  0  0  0
    1.7897    0.2731    0.1001 H   0  0  0  0  0  0  0  0  0  0  0  0
    1.3444    1.6897    1.0362 H   0  0  0  0  0  0  0  0  0  0  0  0
    2.2777    1.5907    0.0000 H   0  0  0  0  0  0  0  0  0  0  0  0
    0.2194   -0.3487   -1.6998 H   0  0  0  0  0  0  0  0  0  0  0  0
  1  2  1  0  0  0  0
  1 18  1  0  0  0  0
  1 19  1  0  0  0  0
  1 20  1  0  0  0  0
  2 17  1  0  0  0  0
  2  3  2  0  0  0  0
  3  4  1  0  0  0  0
  3 21  1  0  0  0  0
  4  5  1  0  0  0  0
  4 15  2  0  0  0  0
  5  6  2  0  0  0  0
  5  7  1  0  0  0  0
  7  8  2  3  0  0  0
  7 22  1  0  0  0  0
  8 13  1  0  0  0  0
  8  9  1  0  0  0  0
  9 10  1  0  0  0  0
  9 23  1  0  0  0  0
  9 24  1  0  0  0  0
 10 11  1  0  0  0  0
 10 25  1  0  0  0  0
 10 26  1  0  0  0  0
 11 12  1  0  0  0  0
 12 13  2  0  0  0  0
 12 27  1  0  0  0  0
 13 14  1  0  0  0  0
 15 16  1  0  0  0  0
 15 17  1  0  0  0  0
 16 28  1  0  0  0  0
 16 29  1  0  0  0  0
 16 30  1  0  0  0  0
 17 31  1  0  0  0  0
M  CHG  1  14  -1
M  END
$$$$
