
 OpenBabel03202621382D

 53 54  0  0  1  0  0  0  0  0999 V2000
    9.5263   -1.5000    0.0000 C   0  0  0  0  0  0  0  0  0  0  0  0
    8.6603   -1.0000    0.0000 C   0  0  0  0  0  0  0  0  0  0  0  0
    8.2530   -0.1853    0.8315 O   0  0  0  0  0  0  0  0  0  0  0  0
    7.8424   -1.2528   -1.2386 C   0  0  0  0  0  0  0  0  0  0  0  0
    6.3984   -1.2766   -0.9494 C   0  0  0  0  0  0  0  0  0  0  0  0
    5.6122   -0.9105   -1.8197 O   0  0  0  0  0  0  0  0  0  0  0  0
    6.0028   -2.0125    0.3116 C   0  0  2  0  0  0  0  0  0  0  0  0
    6.3904   -3.3535    0.0024 O   0  0  0  0  0  0  0  0  0  0  0  0
    4.5678   -1.8352    0.7164 C   0  0  0  0  0  0  0  0  0  0  0  0
    4.2803   -1.4713    1.8595 O   0  0  0  0  0  0  0  0  0  0  0  0
    3.5253   -2.2048   -0.3023 C   0  0  2  0  0  0  0  0  0  0  0  0
    2.8281   -3.4889    0.1835 C   0  0  0  0  0  0  0  0  0  0  0  0
    3.8381   -4.6574    0.3053 C   0  0  0  0  0  0  0  0  0  0  0  0
    3.1903   -5.8743    0.6406 O   0  0  0  0  0  0  0  0  0  0  0  0
    2.6423   -1.0277   -0.7149 C   0  0  0  0  0  0  0  0  0  0  0  0
    1.7047   -1.1569   -1.4978 O   0  0  0  0  0  0  0  0  0  0  0  0
    2.9468    0.3482   -0.1970 C   0  0  0  0  0  0  0  0  0  0  0  0
    3.9328    1.1742   -0.7595 C   0  0  0  0  0  0  0  0  0  0  0  0
    4.2203    2.4258   -0.2184 C   0  0  0  0  0  0  0  0  0  0  0  0
    3.4935    2.8978    0.8760 C   0  0  0  0  0  0  0  0  0  0  0  0
    2.4537    2.1313    1.3903 C   0  0  0  0  0  0  0  0  0  0  0  0
    2.1643    0.8750    0.8127 C   0  0  0  0  0  0  0  0  0  0  0  0
    0.9628    0.2550    1.0677 O   0  0  0  0  0  0  0  0  0  0  0  0
   -0.1364    0.7904    0.3972 C   0  0  0  0  0  0  0  0  0  0  0  0
   -0.1301    1.9191   -0.3379 C   0  0  0  0  0  0  0  0  0  0  0  0
   -1.3426    2.6506   -0.6413 C   0  0  0  0  0  0  0  0  0  0  0  0
   -1.1943    3.9813   -0.9603 N   0  0  0  0  0  0  0  0  0  0  0  0
   -2.5096    2.0229   -0.4432 C   0  0  0  0  0  0  0  0  0  0  0  0
   -2.5508    0.7394    0.0508 N   0  0  0  0  0  0  0  0  0  0  0  0
   -1.4451    0.0660    0.5116 C   0  0  0  0  0  0  0  0  0  0  0  0
   -1.5339   -1.0672    0.9886 O   0  0  0  0  0  0  0  0  0  0  0  0
    9.4120   -1.9805    1.0007 H   0  0  0  0  0  0  0  0  0  0  0  0
   10.2021   -0.6119    0.0251 H   0  0  0  0  0  0  0  0  0  0  0  0
   10.4529   -2.0350    0.0000 H   0  0  0  0  0  0  0  0  0  0  0  0
    8.0873   -0.5195   -2.0198 H   0  0  0  0  0  0  0  0  0  0  0  0
    8.0706   -2.2533   -1.6401 H   0  0  0  0  0  0  0  0  0  0  0  0
    6.5892   -1.6846    1.1645 H   0  0  0  0  0  0  0  0  0  0  0  0
    6.6034   -3.7843    0.8659 H   0  0  0  0  0  0  0  0  0  0  0  0
    4.0271   -2.4842   -1.2337 H   0  0  0  0  0  0  0  0  0  0  0  0
    2.0305   -3.7813   -0.4940 H   0  0  0  0  0  0  0  0  0  0  0  0
    2.3648   -3.3384    1.1664 H   0  0  0  0  0  0  0  0  0  0  0  0
    4.5480   -4.4708    1.1109 H   0  0  0  0  0  0  0  0  0  0  0  0
    4.3920   -4.8018   -0.6268 H   0  0  0  0  0  0  0  0  0  0  0  0
    3.1285   -6.4030   -0.1731 H   0  0  0  0  0  0  0  0  0  0  0  0
    4.4382    0.8873   -1.6787 H   0  0  0  0  0  0  0  0  0  0  0  0
    4.9953    3.0491   -0.6648 H   0  0  0  0  0  0  0  0  0  0  0  0
    3.6983    3.8890    1.2783 H   0  0  0  0  0  0  0  0  0  0  0  0
    1.8059    2.5387    2.1600 H   0  0  0  0  0  0  0  0  0  0  0  0
    0.7922    2.4179   -0.6209 H   0  0  0  0  0  0  0  0  0  0  0  0
   -0.2713    4.3418   -0.7381 H   0  0  0  0  0  0  0  0  0  0  0  0
   -1.9073    4.5530   -0.5155 H   0  0  0  0  0  0  0  0  0  0  0  0
   -3.4598    2.4986   -0.6330 H   0  0  0  0  0  0  0  0  0  0  0  0
   -3.4293    0.2564    0.1463 H   0  0  0  0  0  0  0  0  0  0  0  0
  1  2  1  0  0  0  0
  1 32  1  0  0  0  0
  1 33  1  0  0  0  0
  1 34  1  0  0  0  0
  2  3  2  0  0  0  0
  2  4  1  0  0  0  0
  4  5  1  0  0  0  0
  4 35  1  0  0  0  0
  4 36  1  0  0  0  0
  5  6  2  0  0  0  0
  5  7  1  0  0  0  0
  7  8  1  0  0  0  0
  7  9  1  0  0  0  0
  7 37  1  1  0  0  0
  8 38  1  0  0  0  0
  9 10  2  0  0  0  0
  9 11  1  0  0  0  0
 11 12  1  0  0  0  0
 11 15  1  0  0  0  0
 11 39  1  1  0  0  0
 12 13  1  0  0  0  0
 12 40  1  0  0  0  0
 12 41  1  0  0  0  0
 13 14  1  0  0  0  0
 13 42  1  0  0  0  0
 13 43  1  0  0  0  0
 14 44  1  0  0  0  0
 15 16  2  0  0  0  0
 15 17  1  0  0  0  0
 17 22  2  0  0  0  0
 17 18  1  0  0  0  0
 18 19  2  0  0  0  0
 18 45  1  0  0  0  0
 19 20  1  0  0  0  0
 19 46  1  0  0  0  0
 20 21  2  0  0  0  0
 20 47  1  0  0  0  0
 21 22  1  0  0  0  0
 21 48  1  0  0  0  0
 22 23  1  0  0  0  0
 23 24  1  0  0  0  0
 24 30  1  0  0  0  0
 24 25  2  0  0  0  0
 25 26  1  0  0  0  0
 25 49  1  0  0  0  0
 26 27  1  0  0  0  0
 26 28  2  0  0  0  0
 27 50  1  0  0  0  0
 27 51  1  0  0  0  0
 28 29  1  0  0  0  0
 28 52  1  0  0  0  0
 29 30  1  0  0  0  0
 29 53  1  0  0  0  0
 30 31  2  0  0  0  0
M  END
$$$$
