
 OpenBabel03202621282D

 10 10  0  0  1  0  0  0  0  0999 V2000
    2.9319    0.5176    0.0000 C   0  0  0  0  0  0  0  0  0  0  0  0
    2.2247    1.2247    0.0000 S   0  0  0  0  0  0  0  0  0  0  0  0
    1.2588    0.9659    0.0000 C   0  0  0  0  0  0  0  0  0  0  0  0
    0.5517    1.6730    0.0000 O   0  0  0  0  0  0  0  0  0  0  0  0
    1.0000   -0.0000    0.0000 C   0  0  2  0  0  0  0  0  0  0  0  0
    1.9968   -0.0802    0.0000 C   0  0  0  0  0  0  0  0  0  0  0  0
    2.9936   -0.1605    0.0000 N   0  0  0  0  0  0  0  0  0  0  0  0
    0.5000   -0.8660    0.0000 C   0  0  0  0  0  0  0  0  0  0  0  0
   -0.0000   -0.0000    0.0000 C   0  0  1  0  0  0  0  0  0  0  0  0
   -0.8660    0.5000    0.0000 C   0  0  0  0  0  0  0  0  0  0  0  0
  1  2  1  0  0  0  0
  2  3  1  0  0  0  0
  3  4  2  0  0  0  0
  3  5  1  0  0  0  0
  5  9  1  0  0  0  0
  5  6  1  1  0  0  0
  5  8  1  0  0  0  0
  6  7  3  0  0  0  0
  8  9  1  0  0  0  0
  9 10  1  1  0  0  0
M  END
$$$$
