
 OpenBabel03202621332D

 32 31  0  0  1  0  0  0  0  0999 V2000
    6.0622   -1.5000    0.0000 C   0  0  0  0  0  0  0  0  0  0  0  0
    6.0622   -0.5000    0.0000 C   0  0  0  0  0  0  0  0  0  0  0  0
    5.1962    0.0000    0.0000 C   0  0  1  0  0  0  0  0  0  0  0  0
    5.1962    1.0000    0.0000 C   0  0  0  0  0  0  0  0  0  0  0  0
    4.1341   -0.7002   -1.1630 C   0  0  0  0  0  0  0  0  0  0  0  0
    3.7175    0.1891   -2.2002 O   0  0  0  0  0  0  0  0  0  0  0  0
    2.2935    0.2540   -2.2764 C   0  0  0  0  0  0  0  0  0  0  0  0
    1.7895    0.8017   -0.9411 C   0  0  2  0  0  0  0  0  0  0  0  0
    1.3730    2.2840   -1.0209 C   0  0  0  0  0  0  0  0  0  0  0  0
    0.0227    2.4930   -1.3947 O   0  0  0  0  0  0  0  0  0  0  0  0
    0.8660   -0.5000    0.0000 S   0  0  0  0  0  0  0  0  0  0  0  0
    0.0000    0.0000    0.0000 C   0  0  0  0  0  0  0  0  0  0  0  0
    6.3715   -1.7480   -1.0630 H   0  0  0  0  0  0  0  0  0  0  0  0
    6.9982   -1.7539    0.5831 H   0  0  0  0  0  0  0  0  0  0  0  0
    6.0622   -2.5700    0.0000 H   0  0  0  0  0  0  0  0  0  0  0  0
    6.6651   -0.1370    0.8973 H   0  0  0  0  0  0  0  0  0  0  0  0
    6.8296   -0.1069   -0.7376 H   0  0  0  0  0  0  0  0  0  0  0  0
    4.6189   -0.3276    0.9205 H   0  0  0  0  0  0  0  0  0  0  0  0
    5.2913    1.2717   -1.0844 H   0  0  0  0  0  0  0  0  0  0  0  0
    4.2120    1.2762    0.4312 H   0  0  0  0  0  0  0  0  0  0  0  0
    5.1962    2.0700    0.0000 H   0  0  0  0  0  0  0  0  0  0  0  0
    3.3258   -1.1506   -0.5953 H   0  0  0  0  0  0  0  0  0  0  0  0
    4.5386   -1.5736   -1.6985 H   0  0  0  0  0  0  0  0  0  0  0  0
    2.0403    0.9101   -3.1149 H   0  0  0  0  0  0  0  0  0  0  0  0
    1.9072   -0.7430   -2.5280 H   0  0  0  0  0  0  0  0  0  0  0  0
    2.6201    0.8930   -0.2673 H   0  0  0  0  0  0  0  0  0  0  0  0
    2.0109    2.8157   -1.7359 H   0  0  0  0  0  0  0  0  0  0  0  0
    1.5327    2.7589   -0.0417 H   0  0  0  0  0  0  0  0  0  0  0  0
   -0.1867    3.4154   -1.1543 H   0  0  0  0  0  0  0  0  0  0  0  0
    0.0157    0.3784    1.0422 H   0  0  0  0  0  0  0  0  0  0  0  0
   -0.6946   -0.8612   -0.0296 H   0  0  0  0  0  0  0  0  0  0  0  0
   -0.9266    0.5350    0.0000 H   0  0  0  0  0  0  0  0  0  0  0  0
  1  2  1  0  0  0  0
  1 13  1  0  0  0  0
  1 14  1  0  0  0  0
  1 15  1  0  0  0  0
  2  3  1  0  0  0  0
  2 16  1  0  0  0  0
  2 17  1  0  0  0  0
  3  4  1  0  0  0  0
  3  5  1  0  0  0  0
  3 18  1  1  0  0  0
  4 19  1  0  0  0  0
  4 20  1  0  0  0  0
  4 21  1  0  0  0  0
  5  6  1  0  0  0  0
  5 22  1  0  0  0  0
  5 23  1  0  0  0  0
  6  7  1  0  0  0  0
  7 24  1  0  0  0  0
  7 25  1  0  0  0  0
  8  7  1  0  0  0  0
  8  9  1  0  0  0  0
  8 11  1  0  0  0  0
  8 26  1  6  0  0  0
  9 10  1  0  0  0  0
  9 27  1  0  0  0  0
  9 28  1  0  0  0  0
 10 29  1  0  0  0  0
 11 12  1  0  0  0  0
 12 30  1  0  0  0  0
 12 31  1  0  0  0  0
 12 32  1  0  0  0  0
M  END
$$$$
