
 OpenBabel03202621322D

 30 31  0  0  1  0  0  0  0  0999 V2000
   -0.8660    1.5000    0.0000 C   0  0  0  0  0  0  0  0  0  0  0  0
    0.0000    1.0000    0.0000 C   0  0  0  0  0  0  0  0  0  0  0  0
    0.8837    0.9256   -1.1017 C   0  0  0  0  0  0  0  0  0  0  0  0
    1.7142   -0.1652   -1.3382 C   0  0  0  0  0  0  0  0  0  0  0  0
    1.8633   -1.1575   -0.3641 C   0  0  0  0  0  0  0  0  0  0  0  0
    3.1514   -1.9717   -0.3020 C   0  0  1  0  0  0  0  0  0  0  0  0
    4.1734   -0.9790    0.0283 N   0  0  0  0  0  0  0  0  0  0  0  0
    4.5983    0.0570   -0.7866 C   0  0  0  0  0  0  0  0  0  0  0  0
    4.5468    1.2024    0.0000 C   0  0  0  0  0  0  0  0  0  0  0  0
    4.9535    2.1160    0.0000 C   0  0  0  0  0  0  0  0  0  0  0  0
    4.2155    0.7508    1.2765 N   0  0  0  0  0  0  0  0  0  0  0  0
    4.1871   -0.5636    1.3060 N   0  0  0  0  0  0  0  0  0  0  0  0
    3.5240   -2.8297   -1.4851 C   0  0  0  0  0  0  0  0  0  0  0  0
    3.6582   -2.1345   -2.6380 F   0  0  0  0  0  0  0  0  0  0  0  0
    4.6965   -3.4729   -1.2698 F   0  0  0  0  0  0  0  0  0  0  0  0
    2.5912   -3.7886   -1.7019 F   0  0  0  0  0  0  0  0  0  0  0  0
    1.0601   -1.0991    0.7751 C   0  0  0  0  0  0  0  0  0  0  0  0
    0.1683   -0.0396    0.9409 C   0  0  0  0  0  0  0  0  0  0  0  0
   -0.4825    2.5455   -0.0605 H   0  0  0  0  0  0  0  0  0  0  0  0
   -1.3317    1.1443   -0.9525 H   0  0  0  0  0  0  0  0  0  0  0  0
   -1.7926    2.0350    0.0000 H   0  0  0  0  0  0  0  0  0  0  0  0
    0.8228    1.6843   -1.8877 H   0  0  0  0  0  0  0  0  0  0  0  0
    2.3298   -0.1432   -2.2357 H   0  0  0  0  0  0  0  0  0  0  0  0
    3.1031   -2.6498    0.5620 H   0  0  0  0  0  0  0  0  0  0  0  0
    4.8897   -0.1097   -1.8143 H   0  0  0  0  0  0  0  0  0  0  0  0
    5.9119    1.9189   -0.5380 H   0  0  0  0  0  0  0  0  0  0  0  0
    4.2341    2.6176   -0.6878 H   0  0  0  0  0  0  0  0  0  0  0  0
    5.3887    3.0935    0.0000 H   0  0  0  0  0  0  0  0  0  0  0  0
    1.1557   -1.8315    1.5742 H   0  0  0  0  0  0  0  0  0  0  0  0
   -0.4915   -0.0857    1.8131 H   0  0  0  0  0  0  0  0  0  0  0  0
  1  2  1  0  0  0  0
  1 19  1  0  0  0  0
  1 20  1  0  0  0  0
  1 21  1  0  0  0  0
  2 18  2  0  0  0  0
  2  3  1  0  0  0  0
  3  4  2  0  0  0  0
  3 22  1  0  0  0  0
  4  5  1  0  0  0  0
  4 23  1  0  0  0  0
  5  6  1  0  0  0  0
  5 17  2  0  0  0  0
  6  7  1  0  0  0  0
  6 13  1  0  0  0  0
  6 24  1  6  0  0  0
  7 12  1  0  0  0  0
  7  8  1  0  0  0  0
  8  9  2  0  0  0  0
  8 25  1  0  0  0  0
  9 10  1  0  0  0  0
  9 11  1  0  0  0  0
 10 26  1  0  0  0  0
 10 27  1  0  0  0  0
 10 28  1  0  0  0  0
 11 12  2  0  0  0  0
 13 14  1  0  0  0  0
 13 15  1  0  0  0  0
 13 16  1  0  0  0  0
 17 18  1  0  0  0  0
 17 29  1  0  0  0  0
 18 30  1  0  0  0  0
M  END
$$$$
