
 OpenBabel03202621322D

 32 34  0  0  0  0  0  0  0  0999 V2000
    0.8090   -1.5878    0.0000 C   0  0  0  0  0  0  0  0  0  0  0  0
    0.0000   -1.0000    0.0000 C   0  0  0  0  0  0  0  0  0  0  0  0
   -1.1732   -1.1178    0.7292 C   0  0  0  0  0  0  0  0  0  0  0  0
   -2.0814   -0.3157    0.0956 N   0  0  0  0  0  0  0  0  0  0  0  0
   -3.5329   -0.2745    0.2375 C   0  0  0  0  0  0  0  0  0  0  0  0
   -4.2080   -1.5800   -0.1559 C   0  0  0  0  0  0  0  0  0  0  0  0
   -3.4755   -2.7218    0.0042 N   0  0  0  0  0  0  0  0  0  0  0  0
   -4.0130   -3.9142   -0.3231 C   0  0  0  0  0  0  0  0  0  0  0  0
   -5.2995   -4.0567   -0.7883 C   0  0  0  0  0  0  0  0  0  0  0  0
   -6.0761   -2.9108   -0.9117 C   0  0  0  0  0  0  0  0  0  0  0  0
   -5.5473   -1.6571   -0.5646 C   0  0  0  0  0  0  0  0  0  0  0  0
   -6.4112   -0.4599   -0.6845 C   0  0  0  0  0  0  0  0  0  0  0  0
   -5.9592    0.5300   -1.2514 O   0  0  0  0  0  0  0  0  0  0  0  0
   -7.7287   -0.3644   -0.2065 N   0  0  0  0  0  0  0  0  0  0  0  0
   -8.4556   -1.2695    0.5398 C   0  0  0  0  0  0  0  0  0  0  0  0
   -9.6945   -0.7017    0.7227 C   0  0  0  0  0  0  0  0  0  0  0  0
   -9.7502    0.5342    0.1467 N   0  0  0  0  0  0  0  0  0  0  0  0
   -8.5635    0.7187   -0.3865 C   0  0  0  0  0  0  0  0  0  0  0  0
   -1.4624    0.4878   -0.7812 N   0  0  0  0  0  0  0  0  0  0  0  0
   -0.2070    0.0759   -0.8641 N   0  0  0  0  0  0  0  0  0  0  0  0
    0.7919   -1.9364   -1.0602 H   0  0  0  0  0  0  0  0  0  0  0  0
    1.6014   -0.8172    0.1513 H   0  0  0  0  0  0  0  0  0  0  0  0
    1.6746   -2.2167    0.0000 H   0  0  0  0  0  0  0  0  0  0  0  0
   -1.4772   -1.8164    1.4961 H   0  0  0  0  0  0  0  0  0  0  0  0
   -3.8593    0.5588   -0.3877 H   0  0  0  0  0  0  0  0  0  0  0  0
   -3.7485   -0.0389    1.2842 H   0  0  0  0  0  0  0  0  0  0  0  0
   -3.3533   -4.7702   -0.2008 H   0  0  0  0  0  0  0  0  0  0  0  0
   -5.6881   -5.0362   -1.0501 H   0  0  0  0  0  0  0  0  0  0  0  0
   -7.0903   -3.0093   -1.2957 H   0  0  0  0  0  0  0  0  0  0  0  0
   -8.0551   -2.2137    0.8771 H   0  0  0  0  0  0  0  0  0  0  0  0
  -10.5465   -1.1153    1.2482 H   0  0  0  0  0  0  0  0  0  0  0  0
   -8.2425    1.6043   -0.9216 H   0  0  0  0  0  0  0  0  0  0  0  0
  1  2  1  0  0  0  0
  1 21  1  0  0  0  0
  1 22  1  0  0  0  0
  1 23  1  0  0  0  0
  2 20  1  0  0  0  0
  2  3  2  0  0  0  0
  3  4  1  0  0  0  0
  3 24  1  0  0  0  0
  4  5  1  0  0  0  0
  4 19  1  0  0  0  0
  5  6  1  0  0  0  0
  5 25  1  0  0  0  0
  5 26  1  0  0  0  0
  6 11  2  0  0  0  0
  6  7  1  0  0  0  0
  7  8  2  0  0  0  0
  8  9  1  0  0  0  0
  8 27  1  0  0  0  0
  9 10  2  0  0  0  0
  9 28  1  0  0  0  0
 10 11  1  0  0  0  0
 10 29  1  0  0  0  0
 11 12  1  0  0  0  0
 12 13  2  0  0  0  0
 12 14  1  0  0  0  0
 14 18  1  0  0  0  0
 14 15  1  0  0  0  0
 15 16  2  0  0  0  0
 15 30  1  0  0  0  0
 16 17  1  0  0  0  0
 16 31  1  0  0  0  0
 17 18  2  0  0  0  0
 18 32  1  0  0  0  0
 19 20  2  0  0  0  0
M  END
$$$$
