
 OpenBabel03202621322D

 19 19  0  0  1  0  0  0  0  0999 V2000
   -1.9319   -0.4824    0.0000 C   0  0  0  0  0  0  0  0  0  0  0  0
   -1.6730   -1.4483    0.0000 S   0  0  0  0  0  0  0  0  0  0  0  0
    0.0339   -1.6958    0.3359 C   0  0  0  0  0  0  0  0  0  0  0  0
    0.3544   -2.6047    1.0928 O   0  0  0  0  0  0  0  0  0  0  0  0
    1.0373   -0.7385   -0.3839 C   0  0  1  0  0  0  0  0  0  0  0  0
    1.0973    0.7530    0.0302 C   0  0  0  0  0  0  0  0  0  0  0  0
    2.6340    0.6647    0.1155 C   0  0  1  0  0  0  0  0  0  0  0  0
    3.3666    1.2621   -0.9675 O   0  0  0  0  0  0  0  0  0  0  0  0
    2.5168   -0.8628    0.0783 C   0  0  0  0  0  0  0  0  0  0  0  0
   -1.7927   -0.2435    1.0755 H   0  0  0  0  0  0  0  0  0  0  0  0
   -3.0204   -0.5983   -0.1639 H   0  0  0  0  0  0  0  0  0  0  0  0
   -2.2089    0.5511    0.0000 H   0  0  0  0  0  0  0  0  0  0  0  0
    0.9674   -0.8437   -1.4773 H   0  0  0  0  0  0  0  0  0  0  0  0
    0.7208    1.4493   -0.7261 H   0  0  0  0  0  0  0  0  0  0  0  0
    0.6237    0.9877    0.9881 H   0  0  0  0  0  0  0  0  0  0  0  0
    3.0205    1.0402    1.0717 H   0  0  0  0  0  0  0  0  0  0  0  0
    4.3010    1.0761   -0.7678 H   0  0  0  0  0  0  0  0  0  0  0  0
    3.1738   -1.3677   -0.6369 H   0  0  0  0  0  0  0  0  0  0  0  0
    2.6596   -1.3266    1.0623 H   0  0  0  0  0  0  0  0  0  0  0  0
  1  2  1  0  0  0  0
  1 10  1  0  0  0  0
  1 11  1  0  0  0  0
  1 12  1  0  0  0  0
  2  3  1  0  0  0  0
  3  4  2  0  0  0  0
  5  3  1  0  0  0  0
  5  6  1  0  0  0  0
  5  9  1  0  0  0  0
  5 13  1  6  0  0  0
  6  7  1  0  0  0  0
  6 14  1  0  0  0  0
  6 15  1  0  0  0  0
  7  8  1  0  0  0  0
  7  9  1  0  0  0  0
  7 16  1  6  0  0  0
  8 17  1  0  0  0  0
  9 18  1  0  0  0  0
  9 19  1  0  0  0  0
M  END
$$$$
