
 OpenBabel03202621282D

 18 20  0  0  1  0  0  0  0  0999 V2000
   -3.5491    1.8090    0.0000 C   0  0  0  0  0  0  0  0  0  0  0  0
   -2.6831    1.3090    0.0000 C   0  0  0  0  0  0  0  0  0  0  0  0
   -2.6831    0.3090    0.0000 C   0  0  0  0  0  0  0  0  0  0  0  0
   -1.8171   -0.1910    0.0000 C   0  0  0  0  0  0  0  0  0  0  0  0
   -1.8171   -1.1910    0.0000 C   0  0  0  0  0  0  0  0  0  0  0  0
   -0.9511    0.3090    0.0000 C   0  0  0  0  0  0  0  0  0  0  0  0
   -0.9511    1.3090    0.0000 C   0  0  0  0  0  0  0  0  0  0  0  0
   -1.8171    1.8090    0.0000 C   0  0  0  0  0  0  0  0  0  0  0  0
    0.0000    1.6180    0.0000 C   0  0  0  0  0  0  0  0  0  0  0  0
    0.5878    0.8090    0.0000 C   0  0  2  0  0  0  0  0  0  0  0  0
    1.5878    0.8090    0.0000 C   0  0  0  0  0  0  0  0  0  0  0  0
    2.0878   -0.0570    0.0000 N   0  0  0  0  0  0  0  0  0  0  0  0
    3.0823   -0.1615    0.0000 C   0  0  0  0  0  0  0  0  0  0  0  0
    3.2902   -1.1397    0.0000 C   0  0  0  0  0  0  0  0  0  0  0  0
    4.2038   -1.5464    0.0000 C   0  0  0  0  0  0  0  0  0  0  0  0
    2.4242   -1.6397    0.0000 N   0  0  0  0  0  0  0  0  0  0  0  0
    1.6810   -0.9706    0.0000 N   0  0  0  0  0  0  0  0  0  0  0  0
    0.0000    0.0000    0.0000 O   0  0  0  0  0  0  0  0  0  0  0  0
  1  2  1  0  0  0  0
  2  8  2  0  0  0  0
  2  3  1  0  0  0  0
  3  4  2  0  0  0  0
  4  5  1  0  0  0  0
  4  6  1  0  0  0  0
  6 18  1  0  0  0  0
  6  7  2  0  0  0  0
  7  8  1  0  0  0  0
  7  9  1  0  0  0  0
  9 10  1  0  0  0  0
 10 11  1  6  0  0  0
 10 18  1  0  0  0  0
 11 12  1  0  0  0  0
 12 17  1  0  0  0  0
 12 13  1  0  0  0  0
 13 14  2  0  0  0  0
 14 15  1  0  0  0  0
 14 16  1  0  0  0  0
 16 17  2  0  0  0  0
M  END
$$$$
