
 OpenBabel03202621302D

 16 16  0  0  0  0  0  0  0  0999 V2000
    2.2786    2.9122    0.1054 C   0  0  0  0  0  0  0  0  0  0  0  0
    0.5603    2.4400   -0.2056 S   0  0  0  0  0  0  0  0  0  0  0  0
    0.6699    0.6690   -0.1624 C   0  0  0  0  0  0  0  0  0  0  0  0
    1.8764    0.0720   -0.1652 N   0  0  0  0  0  0  0  0  0  0  0  0
    1.8798   -1.2830   -0.0962 C   0  0  0  0  0  0  0  0  0  0  0  0
    0.7324   -2.0357   -0.0290 C   0  0  0  0  0  0  0  0  0  0  0  0
    0.7538   -3.4963    0.0494 C   0  0  0  0  0  0  0  0  0  0  0  0
    1.8088   -4.1154    0.0685 O   0  0  0  0  0  0  0  0  0  0  0  0
   -0.4488   -1.3349   -0.0396 C   0  0  0  0  0  0  0  0  0  0  0  0
   -0.5035    0.0112   -0.1052 N   0  0  0  0  0  0  0  0  0  0  0  0
    2.7706    2.2527    0.8248 H   0  0  0  0  0  0  0  0  0  0  0  0
    2.2882    3.9230    0.5231 H   0  0  0  0  0  0  0  0  0  0  0  0
    2.8428    2.9233   -0.8311 H   0  0  0  0  0  0  0  0  0  0  0  0
    2.8644   -1.7442   -0.0908 H   0  0  0  0  0  0  0  0  0  0  0  0
   -0.2208   -4.0112    0.0916 H   0  0  0  0  0  0  0  0  0  0  0  0
   -1.4151   -1.8268    0.0104 H   0  0  0  0  0  0  0  0  0  0  0  0
  1  2  1  0  0  0  0
  1 11  1  0  0  0  0
  1 12  1  0  0  0  0
  1 13  1  0  0  0  0
  2  3  1  0  0  0  0
  3 10  2  0  0  0  0
  3  4  1  0  0  0  0
  4  5  2  0  0  0  0
  5  6  1  0  0  0  0
  5 14  1  0  0  0  0
  6  7  1  0  0  0  0
  6  9  2  0  0  0  0
  7  8  2  0  0  0  0
  7 15  1  0  0  0  0
  9 10  1  0  0  0  0
  9 16  1  0  0  0  0
M  END
$$$$
