
 OpenBabel03202621282D

 17 19  0  0  1  0  0  0  0  0999 V2000
    1.9396    2.3110    0.0000 C   0  0  0  0  0  0  0  0  0  0  0  0
    2.7943    1.9363    0.0000 S   0  0  0  0  0  0  0  0  0  0  0  0
    2.8972    1.0087    0.0000 C   0  0  0  0  0  0  0  0  0  0  0  0
    3.7520    0.6340    0.0000 S   0  0  0  0  0  0  0  0  0  0  0  0
    2.1453    0.4558    0.0000 N   0  0  0  0  0  0  0  0  0  0  0  0
    1.2177    0.3529    0.0000 C   0  0  3  0  0  0  0  0  0  0  0  0
    1.2177    1.4823    0.0000 C   0  0  0  0  0  0  0  0  0  0  0  0
    0.3006    2.0118    0.0000 C   0  0  3  0  0  0  0  0  0  0  0  0
    0.8306    1.0949    0.0000 C   0  0  0  0  0  0  0  0  0  0  0  0
    0.8306   -0.0697    0.0000 C   0  0  1  0  0  0  0  0  0  0  0  0
    0.8019   -1.0730    0.0000 C   0  0  0  0  0  0  0  0  0  0  0  0
    1.8292   -0.3522    0.0000 C   0  0  0  0  0  0  0  0  0  0  0  0
   -0.0320   -0.3522    0.0000 C   0  0  0  0  0  0  0  0  0  0  0  0
   -0.6163    0.4243    0.0000 C   0  0  2  0  0  0  0  0  0  0  0  0
   -1.5884    0.6741    0.0000 C   0  0  0  0  0  0  0  0  0  0  0  0
   -0.6163    1.4824    0.0000 C   0  0  0  0  0  0  0  0  0  0  0  0
   -0.0000   -0.0000    0.0000 C   0  0  0  0  0  0  0  0  0  0  0  0
  1  2  1  0  0  0  0
  2  3  1  0  0  0  0
  3  4  2  0  0  0  0
  3  5  1  0  0  0  0
  5  6  1  0  0  0  0
  6 12  1  0  0  0  0
  6 17  1  0  0  0  0
  6  7  1  0  0  0  0
  7  8  1  0  0  0  0
  8 16  1  0  0  0  0
  8  9  1  0  0  0  0
  9 10  1  0  0  0  0
 10 11  1  6  0  0  0
 10 12  1  0  0  0  0
 10 13  1  0  0  0  0
 13 14  1  0  0  0  0
 14 15  1  1  0  0  0
 14 16  1  0  0  0  0
 14 17  1  0  0  0  0
M  END
$$$$
