
 OpenBabel03202621392D

 41 41  0  0  0  0  0  0  0  0999 V2000
   12.6223    3.4245    0.4673 C   0  0  0  0  0  0  0  0  0  0  0  0
   11.8962    4.6593    0.3812 O   0  0  0  0  0  0  0  0  0  0  0  0
   10.6519    4.7144   -0.1723 C   0  0  0  0  0  0  0  0  0  0  0  0
   10.0886    5.7925   -0.3237 O   0  0  0  0  0  0  0  0  0  0  0  0
   10.0091    3.3750   -0.5322 C   0  0  0  0  0  0  0  0  0  0  0  0
    8.8498    3.4708   -1.3509 O   0  0  0  0  0  0  0  0  0  0  0  0
    7.6424    3.1581   -0.6709 C   0  0  0  0  0  0  0  0  0  0  0  0
    7.0320    4.3581    0.0495 C   0  0  0  0  0  0  0  0  0  0  0  0
    5.9929    3.9737    0.9489 O   0  0  0  0  0  0  0  0  0  0  0  0
    4.8516    3.4190    0.3071 C   0  0  0  0  0  0  0  0  0  0  0  0
    4.8522    1.8945    0.4379 C   0  0  0  0  0  0  0  0  0  0  0  0
    3.6336    1.3418   -0.0290 O   0  0  0  0  0  0  0  0  0  0  0  0
    2.5474    1.5855    0.8691 C   0  0  0  0  0  0  0  0  0  0  0  0
    1.3369    1.8777    0.0045 C   0  0  0  0  0  0  0  0  0  0  0  0
    0.6213    0.6351   -0.1655 N   0  0  0  0  0  0  0  0  0  0  0  0
    1.1079   -0.5259   -0.7100 C   0  0  0  0  0  0  0  0  0  0  0  0
    0.5000   -1.5388    0.0000 C   0  0  0  0  0  0  0  0  0  0  0  0
    0.5000   -2.5388    0.0000 C   0  0  0  0  0  0  0  0  0  0  0  0
   -0.4224   -0.8922    0.8513 N   0  0  0  0  0  0  0  0  0  0  0  0
   -0.3759    0.4063    0.6851 N   0  0  0  0  0  0  0  0  0  0  0  0
   12.0762    2.6948    1.0721 H   0  0  0  0  0  0  0  0  0  0  0  0
   13.5787    3.6319    0.9614 H   0  0  0  0  0  0  0  0  0  0  0  0
   12.8357    3.0375   -0.5254 H   0  0  0  0  0  0  0  0  0  0  0  0
   10.7176    2.7944   -1.1271 H   0  0  0  0  0  0  0  0  0  0  0  0
    9.8022    2.8344    0.4002 H   0  0  0  0  0  0  0  0  0  0  0  0
    7.7821    2.3118    0.0113 H   0  0  0  0  0  0  0  0  0  0  0  0
    6.9431    2.8132   -1.4392 H   0  0  0  0  0  0  0  0  0  0  0  0
    7.7867    4.8701    0.6510 H   0  0  0  0  0  0  0  0  0  0  0  0
    6.6515    5.0950   -0.6673 H   0  0  0  0  0  0  0  0  0  0  0  0
    3.9799    3.8527    0.8041 H   0  0  0  0  0  0  0  0  0  0  0  0
    4.7612    3.7259   -0.7428 H   0  0  0  0  0  0  0  0  0  0  0  0
    5.6378    1.4599   -0.1844 H   0  0  0  0  0  0  0  0  0  0  0  0
    5.0589    1.5662    1.4641 H   0  0  0  0  0  0  0  0  0  0  0  0
    2.4333    0.6959    1.5042 H   0  0  0  0  0  0  0  0  0  0  0  0
    2.7373    2.4244    1.5432 H   0  0  0  0  0  0  0  0  0  0  0  0
    1.5827    2.2627   -0.9893 H   0  0  0  0  0  0  0  0  0  0  0  0
    0.6636    2.5829    0.5087 H   0  0  0  0  0  0  0  0  0  0  0  0
    1.8833   -0.5215   -1.4632 H   0  0  0  0  0  0  0  0  0  0  0  0
   -0.5826   -2.7546   -0.1696 H   0  0  0  0  0  0  0  0  0  0  0  0
    0.8197   -2.7327    1.0512 H   0  0  0  0  0  0  0  0  0  0  0  0
    0.5000   -3.6088    0.0000 H   0  0  0  0  0  0  0  0  0  0  0  0
  1  2  1  0  0  0  0
  1 21  1  0  0  0  0
  1 22  1  0  0  0  0
  1 23  1  0  0  0  0
  2  3  1  0  0  0  0
  3  4  2  0  0  0  0
  3  5  1  0  0  0  0
  5  6  1  0  0  0  0
  5 24  1  0  0  0  0
  5 25  1  0  0  0  0
  6  7  1  0  0  0  0
  7  8  1  0  0  0  0
  7 26  1  0  0  0  0
  7 27  1  0  0  0  0
  8  9  1  0  0  0  0
  8 28  1  0  0  0  0
  8 29  1  0  0  0  0
  9 10  1  0  0  0  0
 10 11  1  0  0  0  0
 10 30  1  0  0  0  0
 10 31  1  0  0  0  0
 11 12  1  0  0  0  0
 11 32  1  0  0  0  0
 11 33  1  0  0  0  0
 12 13  1  0  0  0  0
 13 14  1  0  0  0  0
 13 34  1  0  0  0  0
 13 35  1  0  0  0  0
 14 15  1  0  0  0  0
 14 36  1  0  0  0  0
 14 37  1  0  0  0  0
 15 20  1  0  0  0  0
 15 16  1  0  0  0  0
 16 17  2  0  0  0  0
 16 38  1  0  0  0  0
 17 18  1  0  0  0  0
 17 19  1  0  0  0  0
 18 39  1  0  0  0  0
 18 40  1  0  0  0  0
 18 41  1  0  0  0  0
 19 20  2  0  0  0  0
M  END
$$$$
