
 OpenBabel03202621322D

 30 32  0  0  0  0  0  0  0  0999 V2000
   -1.7213   -0.4612    0.0000 C   0  0  0  0  0  0  0  0  0  0  0  0
   -0.9781    0.2079    0.0000 C   0  0  0  0  0  0  0  0  0  0  0  0
   -1.0727    1.5428    0.3635 C   0  0  0  0  0  0  0  0  0  0  0  0
    0.1252    2.1395    0.0530 N   0  0  0  0  0  0  0  0  0  0  0  0
    0.4640    3.5235    0.1786 C   0  0  0  0  0  0  0  0  0  0  0  0
   -0.5039    4.5521    0.4152 C   0  0  0  0  0  0  0  0  0  0  0  0
    0.0717    5.7994    0.4810 C   0  0  0  0  0  0  0  0  0  0  0  0
    1.7657    5.7322    0.3041 S   0  0  0  0  0  0  0  0  0  0  0  0
    1.7686    4.0206    0.1179 C   0  0  0  0  0  0  0  0  0  0  0  0
    3.0469    3.2096   -0.0022 C   0  0  0  0  0  0  0  0  0  0  0  0
    4.5790    4.0952   -0.4279 S   0  0  0  0  0  0  0  0  0  0  0  0
    5.8369    2.8986    0.1534 C   0  0  0  0  0  0  0  0  0  0  0  0
    5.4617    1.4240    0.0089 C   0  0  0  0  0  0  0  0  0  0  0  0
    4.2573    0.9345    0.8147 C   0  0  0  0  0  0  0  0  0  0  0  0
    3.2839    2.2686    1.5515 S   0  0  0  0  0  0  0  0  0  0  0  0
    0.9446    1.1891   -0.4508 N   0  0  0  0  0  0  0  0  0  0  0  0
    0.3016    0.0356   -0.4828 N   0  0  0  0  0  0  0  0  0  0  0  0
   -1.8474   -0.5950   -1.1011 H   0  0  0  0  0  0  0  0  0  0  0  0
   -1.1897   -1.3392    0.4378 H   0  0  0  0  0  0  0  0  0  0  0  0
   -2.5165   -1.1771    0.0000 H   0  0  0  0  0  0  0  0  0  0  0  0
   -1.8932    2.1097    0.7822 H   0  0  0  0  0  0  0  0  0  0  0  0
   -1.5736    4.4075    0.5082 H   0  0  0  0  0  0  0  0  0  0  0  0
   -0.4188    6.7476    0.6326 H   0  0  0  0  0  0  0  0  0  0  0  0
    2.9102    2.5173   -0.8381 H   0  0  0  0  0  0  0  0  0  0  0  0
    6.0796    3.1321    1.1964 H   0  0  0  0  0  0  0  0  0  0  0  0
    6.7471    3.0929   -0.4247 H   0  0  0  0  0  0  0  0  0  0  0  0
    5.3038    1.1913   -1.0523 H   0  0  0  0  0  0  0  0  0  0  0  0
    6.3281    0.8182    0.3073 H   0  0  0  0  0  0  0  0  0  0  0  0
    3.6058    0.3305    0.1718 H   0  0  0  0  0  0  0  0  0  0  0  0
    4.5827    0.2717    1.6215 H   0  0  0  0  0  0  0  0  0  0  0  0
  1  2  1  0  0  0  0
  1 18  1  0  0  0  0
  1 19  1  0  0  0  0
  1 20  1  0  0  0  0
  2 17  1  0  0  0  0
  2  3  2  0  0  0  0
  3  4  1  0  0  0  0
  3 21  1  0  0  0  0
  4  5  1  0  0  0  0
  4 16  1  0  0  0  0
  5  9  2  0  0  0  0
  5  6  1  0  0  0  0
  6  7  2  0  0  0  0
  6 22  1  0  0  0  0
  7  8  1  0  0  0  0
  7 23  1  0  0  0  0
  8  9  1  0  0  0  0
  9 10  1  0  0  0  0
 10 15  1  0  0  0  0
 10 11  1  0  0  0  0
 10 24  1  0  0  0  0
 11 12  1  0  0  0  0
 12 13  1  0  0  0  0
 12 25  1  0  0  0  0
 12 26  1  0  0  0  0
 13 14  1  0  0  0  0
 13 27  1  0  0  0  0
 13 28  1  0  0  0  0
 14 15  1  0  0  0  0
 14 29  1  0  0  0  0
 14 30  1  0  0  0  0
 16 17  2  0  0  0  0
M  END
$$$$
