
 OpenBabel03202621342D

 29 29  0  0  0  0  0  0  0  0999 V2000
    0.2788   -1.7601    0.0000 C   0  0  0  0  0  0  0  0  0  0  0  0
   -0.3090   -0.9511    0.0000 C   0  0  0  0  0  0  0  0  0  0  0  0
   -1.5688   -0.7844    0.5486 C   0  0  0  0  0  0  0  0  0  0  0  0
   -2.0611    0.4486    0.1501 N   0  0  0  0  0  0  0  0  0  0  0  0
   -3.3521    1.0355    0.1121 C   0  0  0  0  0  0  0  0  0  0  0  0
   -3.4452    2.2628    0.0294 O   0  0  0  0  0  0  0  0  0  0  0  0
   -4.6098    0.1571    0.0566 C   0  0  0  0  0  0  0  0  0  0  0  0
   -4.3816   -1.3289    0.1436 C   0  0  0  0  0  0  0  0  0  0  0  0
   -5.4750   -2.3611   -0.0840 C   0  0  0  0  0  0  0  0  0  0  0  0
   -4.7183   -3.7011   -0.0257 C   0  0  0  0  0  0  0  0  0  0  0  0
   -5.5251   -4.9691   -0.0877 C   0  0  0  0  0  0  0  0  0  0  0  0
   -6.7406   -4.9797   -0.2333 O   0  0  0  0  0  0  0  0  0  0  0  0
   -4.7082   -6.0668    0.0401 N   0  0  0  0  0  0  0  0  0  0  0  0
   -5.3245   -7.1332   -0.0046 N   0  3  0  0  0  0  0  0  0  0  0  0
   -5.8447   -8.1473   -0.0394 N   0  5  0  0  0  0  0  0  0  0  0  0
   -1.0060    1.1458   -0.3331 N   0  0  0  0  0  0  0  0  0  0  0  0
    0.0070    0.3078   -0.5003 N   0  0  0  0  0  0  0  0  0  0  0  0
   -0.1899   -2.3144   -0.8492 H   0  0  0  0  0  0  0  0  0  0  0  0
    1.2488   -1.3413   -0.3631 H   0  0  0  0  0  0  0  0  0  0  0  0
    0.9077   -2.6257    0.0000 H   0  0  0  0  0  0  0  0  0  0  0  0
   -2.1351   -1.4881    1.1310 H   0  0  0  0  0  0  0  0  0  0  0  0
   -5.1069    0.3907   -0.8933 H   0  0  0  0  0  0  0  0  0  0  0  0
   -5.2773    0.4840    0.8628 H   0  0  0  0  0  0  0  0  0  0  0  0
   -4.0346   -1.5142    1.1634 H   0  0  0  0  0  0  0  0  0  0  0  0
   -3.6046   -1.5685   -0.5899 H   0  0  0  0  0  0  0  0  0  0  0  0
   -5.9643   -2.2312   -1.0542 H   0  0  0  0  0  0  0  0  0  0  0  0
   -6.2405   -2.3055    0.6970 H   0  0  0  0  0  0  0  0  0  0  0  0
   -3.9975   -3.7411   -0.8545 H   0  0  0  0  0  0  0  0  0  0  0  0
   -4.1437   -3.7453    0.9097 H   0  0  0  0  0  0  0  0  0  0  0  0
  1  2  1  0  0  0  0
  1 18  1  0  0  0  0
  1 19  1  0  0  0  0
  1 20  1  0  0  0  0
  2 17  1  0  0  0  0
  2  3  2  0  0  0  0
  3  4  1  0  0  0  0
  3 21  1  0  0  0  0
  4  5  1  0  0  0  0
  4 16  1  0  0  0  0
  5  6  2  0  0  0  0
  5  7  1  0  0  0  0
  7  8  1  0  0  0  0
  7 22  1  0  0  0  0
  7 23  1  0  0  0  0
  8  9  1  0  0  0  0
  8 24  1  0  0  0  0
  8 25  1  0  0  0  0
  9 10  1  0  0  0  0
  9 26  1  0  0  0  0
  9 27  1  0  0  0  0
 10 11  1  0  0  0  0
 10 28  1  0  0  0  0
 10 29  1  0  0  0  0
 11 12  2  0  0  0  0
 11 13  1  0  0  0  0
 13 14  2  0  0  0  0
 14 15  2  0  0  0  0
 16 17  2  0  0  0  0
M  CHG  2  14   1  15  -1
M  END
$$$$
