
 OpenBabel03202621352D

 23 23  0  0  1  0  0  0  0  0999 V2000
    0.1019    1.2949    0.0000 C   0  0  0  0  0  0  0  0  0  0  0  0
    0.8090    0.5878    0.0000 C   0  0  0  0  0  0  0  0  0  0  0  0
    1.6427    1.1401    0.0000 C   0  0  0  0  0  0  0  0  0  0  0  0
    0.7271   -0.5796    1.0900 C   0  0  0  0  0  0  0  0  0  0  0  0
    1.0745   -1.8749    0.3422 C   0  0  1  0  0  0  0  0  0  0  0  0
    0.5762   -3.0183    1.0386 O   0  0  0  0  0  0  0  0  0  0  0  0
    0.9987   -4.2069    0.5289 C   0  0  0  0  0  0  0  0  0  0  0  0
    1.7192   -4.3763   -0.4392 O   0  0  0  0  0  0  0  0  0  0  0  0
    0.3783   -1.6352   -0.9824 C   0  0  0  0  0  0  0  0  0  0  0  0
    0.7372   -0.2547   -1.2993 N   0  0  0  0  0  0  0  0  0  0  0  0
    0.0204    1.5877    1.1078 H   0  0  0  0  0  0  0  0  0  0  0  0
   -0.8471    0.7000   -0.1598 H   0  0  0  0  0  0  0  0  0  0  0  0
   -0.6547    2.0515    0.0000 H   0  0  0  0  0  0  0  0  0  0  0  0
    2.4608    0.3725    0.1130 H   0  0  0  0  0  0  0  0  0  0  0  0
    1.7621    1.5624   -1.0687 H   0  0  0  0  0  0  0  0  0  0  0  0
    2.5347    1.7310    0.0000 H   0  0  0  0  0  0  0  0  0  0  0  0
    1.4093   -0.4325    1.9397 H   0  0  0  0  0  0  0  0  0  0  0  0
   -0.2827   -0.6747    1.5195 H   0  0  0  0  0  0  0  0  0  0  0  0
    2.1640   -1.9496    0.2217 H   0  0  0  0  0  0  0  0  0  0  0  0
    0.5729   -5.0231    1.1349 H   0  0  0  0  0  0  0  0  0  0  0  0
    0.7088   -2.3191   -1.7683 H   0  0  0  0  0  0  0  0  0  0  0  0
   -0.7089   -1.7457   -0.8848 H   0  0  0  0  0  0  0  0  0  0  0  0
    0.0964    0.1412   -1.9891 H   0  0  0  0  0  0  0  0  0  0  0  0
  1  2  1  0  0  0  0
  1 11  1  0  0  0  0
  1 12  1  0  0  0  0
  1 13  1  0  0  0  0
  2 10  1  0  0  0  0
  2  3  1  0  0  0  0
  2  4  1  0  0  0  0
  3 14  1  0  0  0  0
  3 15  1  0  0  0  0
  3 16  1  0  0  0  0
  4  5  1  0  0  0  0
  4 17  1  0  0  0  0
  4 18  1  0  0  0  0
  5  6  1  0  0  0  0
  5  9  1  0  0  0  0
  5 19  1  6  0  0  0
  6  7  1  0  0  0  0
  7  8  2  0  0  0  0
  7 20  1  0  0  0  0
  9 10  1  0  0  0  0
  9 21  1  0  0  0  0
  9 22  1  0  0  0  0
 10 23  1  0  0  0  0
M  END
$$$$
