
 OpenBabel03202621322D

 16 15  0  0  0  0  0  0  0  0999 V2000
    5.4234    0.8424    0.0397 C   0  0  0  0  0  0  0  0  0  0  0  0
    4.8673    2.0523   -0.0631 C   0  0  0  0  0  0  0  0  0  0  0  0
    3.5956    2.4580    0.3861 O   0  0  0  0  0  0  0  0  0  0  0  0
    2.3717    1.8391    0.4190 C   0  0  0  0  0  0  0  0  0  0  0  0
    1.4721    2.3242    1.0994 O   0  0  0  0  0  0  0  0  0  0  0  0
    2.1580    0.6910   -0.5470 C   0  0  0  0  0  0  0  0  0  0  0  0
    0.8660   -0.5000    0.0000 S   0  0  0  0  0  0  0  0  0  0  0  0
    0.0000    0.0000    0.0000 C   0  0  0  0  0  0  0  0  0  0  0  0
    4.9200   -0.0103    0.4787 H   0  0  0  0  0  0  0  0  0  0  0  0
    6.4506    0.6923   -0.2867 H   0  0  0  0  0  0  0  0  0  0  0  0
    5.4075    2.9275   -0.4081 H   0  0  0  0  0  0  0  0  0  0  0  0
    1.9248    1.0839   -1.5415 H   0  0  0  0  0  0  0  0  0  0  0  0
    3.0530    0.0799   -0.6296 H   0  0  0  0  0  0  0  0  0  0  0  0
   -0.1358    0.1143    1.0934 H   0  0  0  0  0  0  0  0  0  0  0  0
   -0.6687   -0.8163   -0.3336 H   0  0  0  0  0  0  0  0  0  0  0  0
   -0.9266    0.5350    0.0000 H   0  0  0  0  0  0  0  0  0  0  0  0
  1  2  2  0  0  0  0
  1  9  1  0  0  0  0
  1 10  1  0  0  0  0
  2  3  1  0  0  0  0
  2 11  1  0  0  0  0
  3  4  1  0  0  0  0
  4  5  2  0  0  0  0
  4  6  1  0  0  0  0
  6  7  1  0  0  0  0
  6 12  1  0  0  0  0
  6 13  1  0  0  0  0
  7  8  1  0  0  0  0
  8 14  1  0  0  0  0
  8 15  1  0  0  0  0
  8 16  1  0  0  0  0
M  END
$$$$
