
 OpenBabel03202621352D

 34 35  0  0  1  0  0  0  0  0999 V2000
    3.7195   -0.1151    0.0000 C   0  0  0  0  0  0  0  0  0  0  0  0
    3.5116   -1.0933    0.0000 N   0  0  0  0  0  0  0  0  0  0  0  0
    4.4971   -2.1736   -0.1717 C   0  0  0  0  0  0  0  0  0  0  0  0
    3.7417   -3.4886   -0.1492 C   0  0  0  0  0  0  0  0  0  0  0  0
    2.3330   -3.0965   -0.5215 C   0  0  0  0  0  0  0  0  0  0  0  0
    2.1721   -1.7009    0.0872 C   0  0  2  0  0  0  0  0  0  0  0  0
    1.0428   -0.9019   -0.5984 C   0  0  0  0  0  0  0  0  0  0  0  0
   -0.3394   -1.4456   -0.3181 C   0  0  0  0  0  0  0  0  0  0  0  0
   -1.4727   -0.7597   -0.0675 C   0  0  0  0  0  0  0  0  0  0  0  0
   -2.7304   -1.5169    0.3277 C   0  0  0  0  0  0  0  0  0  0  0  0
   -3.9976   -0.7548   -0.0511 C   0  0  0  0  0  0  0  0  0  0  0  0
   -4.0147    0.5828    0.4587 O   0  0  0  0  0  0  0  0  0  0  0  0
   -2.8383    1.2464    0.2141 C   0  0  0  0  0  0  0  0  0  0  0  0
   -1.6564    0.6885   -0.0687 C   0  0  0  0  0  0  0  0  0  0  0  0
   -0.5586    1.4567   -0.3657 O   0  0  0  0  0  0  0  0  0  0  0  0
    4.8332   -0.0828    0.0223 H   0  0  0  0  0  0  0  0  0  0  0  0
    3.3882    0.1507    1.0296 H   0  0  0  0  0  0  0  0  0  0  0  0
    3.9419    0.9315    0.0000 H   0  0  0  0  0  0  0  0  0  0  0  0
    5.0152   -2.0684   -1.1347 H   0  0  0  0  0  0  0  0  0  0  0  0
    5.2542   -2.1733    0.6244 H   0  0  0  0  0  0  0  0  0  0  0  0
    4.1641   -4.2207   -0.8454 H   0  0  0  0  0  0  0  0  0  0  0  0
    3.7610   -3.9215    0.8572 H   0  0  0  0  0  0  0  0  0  0  0  0
    1.6069   -3.8164   -0.1300 H   0  0  0  0  0  0  0  0  0  0  0  0
    2.2333   -3.0675   -1.6139 H   0  0  0  0  0  0  0  0  0  0  0  0
    1.9264   -1.8161    1.1540 H   0  0  0  0  0  0  0  0  0  0  0  0
    1.2009   -0.8812   -1.6814 H   0  0  0  0  0  0  0  0  0  0  0  0
    1.1367    0.1195   -0.2313 H   0  0  0  0  0  0  0  0  0  0  0  0
   -0.3981   -2.5314   -0.2834 H   0  0  0  0  0  0  0  0  0  0  0  0
   -2.7106   -1.6543    1.4171 H   0  0  0  0  0  0  0  0  0  0  0  0
   -2.7596   -2.5113   -0.1330 H   0  0  0  0  0  0  0  0  0  0  0  0
   -4.1310   -0.7173   -1.1399 H   0  0  0  0  0  0  0  0  0  0  0  0
   -4.8731   -1.2690    0.3632 H   0  0  0  0  0  0  0  0  0  0  0  0
   -2.9979    2.3158    0.2867 H   0  0  0  0  0  0  0  0  0  0  0  0
   -0.7461    2.3773   -0.1215 H   0  0  0  0  0  0  0  0  0  0  0  0
  1  2  1  0  0  0  0
  1 16  1  0  0  0  0
  1 17  1  0  0  0  0
  1 18  1  0  0  0  0
  2  6  1  0  0  0  0
  2  3  1  0  0  0  0
  3  4  1  0  0  0  0
  3 19  1  0  0  0  0
  3 20  1  0  0  0  0
  4  5  1  0  0  0  0
  4 21  1  0  0  0  0
  4 22  1  0  0  0  0
  5  6  1  0  0  0  0
  5 23  1  0  0  0  0
  5 24  1  0  0  0  0
  6  7  1  0  0  0  0
  6 25  1  1  0  0  0
  7  8  1  0  0  0  0
  7 26  1  0  0  0  0
  7 27  1  0  0  0  0
  8  9  2  3  0  0  0
  8 28  1  0  0  0  0
  9 14  1  0  0  0  0
  9 10  1  0  0  0  0
 10 11  1  0  0  0  0
 10 29  1  0  0  0  0
 10 30  1  0  0  0  0
 11 12  1  0  0  0  0
 11 31  1  0  0  0  0
 11 32  1  0  0  0  0
 12 13  1  0  0  0  0
 13 14  2  0  0  0  0
 13 33  1  0  0  0  0
 14 15  1  0  0  0  0
 15 34  1  0  0  0  0
M  END
$$$$
