
 OpenBabel03202621352D

 40 42  0  0  1  0  0  0  0  0999 V2000
    1.9396    2.3110    0.0000 C   0  0  0  0  0  0  0  0  0  0  0  0
    2.7943    1.9363    0.0000 S   0  0  0  0  0  0  0  0  0  0  0  0
    2.6662    0.7863    1.3426 C   0  0  0  0  0  0  0  0  0  0  0  0
    3.9904    0.4619    2.3212 S   0  0  0  0  0  0  0  0  0  0  0  0
    1.4548    0.1797    1.6955 N   0  0  0  0  0  0  0  0  0  0  0  0
    0.2183   -0.1992    0.9245 C   0  0  3  0  0  0  0  0  0  0  0  0
   -0.7960    0.9481    0.6644 C   0  0  0  0  0  0  0  0  0  0  0  0
   -1.9471    0.5057   -0.2388 C   0  0  3  0  0  0  0  0  0  0  0  0
   -1.3924   -0.1281   -1.5266 C   0  0  0  0  0  0  0  0  0  0  0  0
   -0.5512   -1.3789   -1.1968 C   0  0  1  0  0  0  0  0  0  0  0  0
   -0.0481   -2.0554   -2.4765 C   0  0  0  0  0  0  0  0  0  0  0  0
    0.6541   -0.9246   -0.3636 C   0  0  0  0  0  0  0  0  0  0  0  0
   -1.3980   -2.3658   -0.3658 C   0  0  0  0  0  0  0  0  0  0  0  0
   -1.8933   -1.6988    0.9392 C   0  0  2  0  0  0  0  0  0  0  0  0
   -2.7522   -2.6621    1.7679 C   0  0  0  0  0  0  0  0  0  0  0  0
   -2.7782   -0.5003    0.5388 C   0  0  0  0  0  0  0  0  0  0  0  0
   -0.6401   -1.2277    1.7475 C   0  0  0  0  0  0  0  0  0  0  0  0
    2.1733    3.3144    0.4097 H   0  0  0  0  0  0  0  0  0  0  0  0
    1.7870    2.4196   -1.0915 H   0  0  0  0  0  0  0  0  0  0  0  0
    0.9596    2.7406    0.0000 H   0  0  0  0  0  0  0  0  0  0  0  0
    1.5911   -0.3868    2.5274 H   0  0  0  0  0  0  0  0  0  0  0  0
   -1.1713    1.3438    1.6191 H   0  0  0  0  0  0  0  0  0  0  0  0
   -0.4043    1.7886    0.1403 H   0  0  0  0  0  0  0  0  0  0  0  0
   -2.5657    1.3729   -0.4957 H   0  0  0  0  0  0  0  0  0  0  0  0
   -0.7797    0.6102   -2.0600 H   0  0  0  0  0  0  0  0  0  0  0  0
   -2.2218   -0.3893   -2.1971 H   0  0  0  0  0  0  0  0  0  0  0  0
   -0.8797   -2.3430   -3.1284 H   0  0  0  0  0  0  0  0  0  0  0  0
    0.6102   -1.3883   -3.0441 H   0  0  0  0  0  0  0  0  0  0  0  0
    0.5237   -2.9596   -2.2398 H   0  0  0  0  0  0  0  0  0  0  0  0
    1.2870   -0.2794   -0.9797 H   0  0  0  0  0  0  0  0  0  0  0  0
    1.2788   -1.7903   -0.1024 H   0  0  0  0  0  0  0  0  0  0  0  0
   -2.2568   -2.7104   -0.9600 H   0  0  0  0  0  0  0  0  0  0  0  0
   -0.8098   -3.2596   -0.1223 H   0  0  0  0  0  0  0  0  0  0  0  0
   -3.1310   -2.1758    2.6662 H   0  0  0  0  0  0  0  0  0  0  0  0
   -2.1769   -3.5431    2.0663 H   0  0  0  0  0  0  0  0  0  0  0  0
   -3.6138   -3.0082    1.1841 H   0  0  0  0  0  0  0  0  0  0  0  0
   -3.2060   -0.0215    1.4316 H   0  0  0  0  0  0  0  0  0  0  0  0
   -3.6284   -0.8314   -0.0746 H   0  0  0  0  0  0  0  0  0  0  0  0
   -0.0262   -2.0926    2.0220 H   0  0  0  0  0  0  0  0  0  0  0  0
   -0.9587   -0.7682    2.6966 H   0  0  0  0  0  0  0  0  0  0  0  0
  1  2  1  0  0  0  0
  1 18  1  0  0  0  0
  1 19  1  0  0  0  0
  1 20  1  0  0  0  0
  2  3  1  0  0  0  0
  3  4  2  0  0  0  0
  3  5  1  0  0  0  0
  5  6  1  0  0  0  0
  5 21  1  0  0  0  0
  6 12  1  0  0  0  0
  6 17  1  0  0  0  0
  6  7  1  0  0  0  0
  7  8  1  0  0  0  0
  7 22  1  0  0  0  0
  7 23  1  0  0  0  0
  8 16  1  0  0  0  0
  8  9  1  0  0  0  0
  8 24  1  0  0  0  0
  9 10  1  0  0  0  0
  9 25  1  0  0  0  0
  9 26  1  0  0  0  0
 10 11  1  6  0  0  0
 10 12  1  0  0  0  0
 10 13  1  0  0  0  0
 11 27  1  0  0  0  0
 11 28  1  0  0  0  0
 11 29  1  0  0  0  0
 12 30  1  0  0  0  0
 12 31  1  0  0  0  0
 13 14  1  0  0  0  0
 13 32  1  0  0  0  0
 13 33  1  0  0  0  0
 14 15  1  1  0  0  0
 14 16  1  0  0  0  0
 14 17  1  0  0  0  0
 15 34  1  0  0  0  0
 15 35  1  0  0  0  0
 15 36  1  0  0  0  0
 16 37  1  0  0  0  0
 16 38  1  0  0  0  0
 17 39  1  0  0  0  0
 17 40  1  0  0  0  0
M  END
$$$$
