
 OpenBabel03202621342D

 23 23  0  0  1  0  0  0  0  0999 V2000
    3.6622    0.3393    0.0000 C   0  0  0  0  0  0  0  0  0  0  0  0
    2.9190    1.0084    0.0000 S   0  0  0  0  0  0  0  0  0  0  0  0
    1.5052    0.6202   -0.9229 C   0  0  0  0  0  0  0  0  0  0  0  0
    0.8396    1.6861   -2.0168 S   0  0  0  0  0  0  0  0  0  0  0  0
    1.0600   -0.6651   -0.6986 N   0  0  0  0  0  0  0  0  0  0  0  0
   -0.2173   -1.0196   -0.0351 C   0  0  2  0  0  0  0  0  0  0  0  0
   -0.4650   -2.5057   -0.2539 C   0  0  0  0  0  0  0  0  0  0  0  0
   -2.1089   -2.7520    0.3280 S   0  0  0  0  0  0  0  0  0  0  0  0
   -2.0724   -2.7472    1.7768 O   0  0  0  0  0  0  0  0  0  0  0  0
   -2.7185   -3.8224   -0.4292 O   0  0  0  0  0  0  0  0  0  0  0  0
   -2.7377   -1.1956   -0.2312 C   0  0  0  0  0  0  0  0  0  0  0  0
   -1.5237   -0.2898   -0.4468 C   0  0  1  0  0  0  0  0  0  0  0  0
   -1.7376    1.2003    0.5346 Cl  0  0  0  0  0  0  0  0  0  0  0  0
    3.4430   -0.1707    0.9592 H   0  0  0  0  0  0  0  0  0  0  0  0
    4.5117    1.0270    0.1735 H   0  0  0  0  0  0  0  0  0  0  0  0
    4.4574   -0.3766    0.0000 H   0  0  0  0  0  0  0  0  0  0  0  0
    1.8027   -1.2016   -0.2666 H   0  0  0  0  0  0  0  0  0  0  0  0
   -0.0385   -0.8511    1.0362 H   0  0  0  0  0  0  0  0  0  0  0  0
    0.2257   -3.1395    0.3074 H   0  0  0  0  0  0  0  0  0  0  0  0
   -0.4294   -2.7753   -1.3149 H   0  0  0  0  0  0  0  0  0  0  0  0
   -3.2436   -1.3757   -1.1867 H   0  0  0  0  0  0  0  0  0  0  0  0
   -3.4691   -0.8341    0.4945 H   0  0  0  0  0  0  0  0  0  0  0  0
   -1.5054    0.0209   -1.4938 H   0  0  0  0  0  0  0  0  0  0  0  0
  1  2  1  0  0  0  0
  1 14  1  0  0  0  0
  1 15  1  0  0  0  0
  1 16  1  0  0  0  0
  2  3  1  0  0  0  0
  3  4  2  0  0  0  0
  3  5  1  0  0  0  0
  5 17  1  0  0  0  0
  6  5  1  0  0  0  0
  6  7  1  0  0  0  0
  6 12  1  0  0  0  0
  6 18  1  1  0  0  0
  7  8  1  0  0  0  0
  7 19  1  0  0  0  0
  7 20  1  0  0  0  0
  8  9  2  0  0  0  0
  8 10  2  0  0  0  0
  8 11  1  0  0  0  0
 11 12  1  0  0  0  0
 11 21  1  0  0  0  0
 11 22  1  0  0  0  0
 12 13  1  0  0  0  0
 12 23  1  6  0  0  0
M  END
$$$$
