
 OpenBabel03202621302D

 21 20  0  0  0  0  0  0  0  0999 V2000
    5.1962    0.0000    0.0000 C   0  0  0  0  0  0  0  0  0  0  0  0
    5.1962    1.0000    0.0000 C   0  0  0  0  0  0  0  0  0  0  0  0
    4.9401    1.8405   -1.1480 O   0  0  0  0  0  0  0  0  0  0  0  0
    3.9387    2.7310   -0.8990 C   0  0  0  0  0  0  0  0  0  0  0  0
    4.0523    3.9473   -0.7915 O   0  0  0  0  0  0  0  0  0  0  0  0
    2.6912    1.9794   -0.7329 C   0  0  0  0  0  0  0  0  0  0  0  0
    2.6002    0.8842   -1.5045 C   0  0  0  0  0  0  0  0  0  0  0  0
    1.3969    0.1115   -1.5438 C   0  0  0  0  0  0  0  0  0  0  0  0
    0.7015    0.0678   -2.5635 O   0  0  0  0  0  0  0  0  0  0  0  0
    0.8660   -0.5000    0.0000 S   0  0  0  0  0  0  0  0  0  0  0  0
    0.0000    0.0000    0.0000 C   0  0  0  0  0  0  0  0  0  0  0  0
    5.6693   -0.1968   -0.9908 H   0  0  0  0  0  0  0  0  0  0  0  0
    5.9229   -0.2184    0.8234 H   0  0  0  0  0  0  0  0  0  0  0  0
    5.1962   -1.0700    0.0000 H   0  0  0  0  0  0  0  0  0  0  0  0
    6.1851    1.4447    0.2469 H   0  0  0  0  0  0  0  0  0  0  0  0
    4.6198    1.4118    0.8479 H   0  0  0  0  0  0  0  0  0  0  0  0
    1.9760    2.3526   -0.0229 H   0  0  0  0  0  0  0  0  0  0  0  0
    3.3447    0.5419   -2.2059 H   0  0  0  0  0  0  0  0  0  0  0  0
    0.0857    0.4958    0.9871 H   0  0  0  0  0  0  0  0  0  0  0  0
   -0.6948   -0.8558    0.1127 H   0  0  0  0  0  0  0  0  0  0  0  0
   -0.9266    0.5350    0.0000 H   0  0  0  0  0  0  0  0  0  0  0  0
  1  2  1  0  0  0  0
  1 12  1  0  0  0  0
  1 13  1  0  0  0  0
  1 14  1  0  0  0  0
  2  3  1  0  0  0  0
  2 15  1  0  0  0  0
  2 16  1  0  0  0  0
  3  4  1  0  0  0  0
  4  5  2  0  0  0  0
  4  6  1  0  0  0  0
  6  7  2  3  0  0  0
  6 17  1  0  0  0  0
  7  8  1  0  0  0  0
  7 18  1  0  0  0  0
  8  9  2  0  0  0  0
  8 10  1  0  0  0  0
 10 11  1  0  0  0  0
 11 19  1  0  0  0  0
 11 20  1  0  0  0  0
 11 21  1  0  0  0  0
M  END
$$$$
