
 OpenBabel03202621392D

 32 34  0  0  1  0  0  0  0  0999 V2000
    1.8591   -0.6668   -2.2278 O   0  0  0  0  0  0  0  0  0  0  0  0
    1.5343   -1.0276   -1.0983 C   0  0  0  0  0  0  0  0  0  0  0  0
    2.1118   -2.2719   -0.4758 C   0  0  0  0  0  0  0  0  0  0  0  0
    1.1115   -2.7868    0.5335 C   0  0  0  0  0  0  0  0  0  0  0  0
    0.8643   -1.8051    1.5481 O   0  0  0  0  0  0  0  0  0  0  0  0
    0.4807   -0.5917    1.0219 C   0  0  0  0  0  0  0  0  0  0  0  0
    0.6321   -0.1925   -0.2477 C   0  0  0  0  0  0  0  0  0  0  0  0
    0.1546    1.0158   -0.8132 O   0  0  0  0  0  0  0  0  0  0  0  0
   -0.9948    1.7249   -0.6202 C   0  0  0  0  0  0  0  0  0  0  0  0
   -1.1098    2.8445   -1.1220 O   0  0  0  0  0  0  0  0  0  0  0  0
   -2.0670    1.1566    0.3060 C   0  0  1  0  0  0  0  0  0  0  0  0
   -2.4646   -0.2685    0.0604 N   0  0  0  0  0  0  0  0  0  0  0  0
   -3.9480   -0.2631    0.1467 C   0  0  2  0  0  0  0  0  0  0  0  0
   -4.4749    0.2578   -1.1928 C   0  0  0  0  0  0  0  0  0  0  0  0
   -4.0908    1.7428   -1.1395 C   0  0  0  0  0  0  0  0  0  0  0  0
   -3.4263    1.8784    0.2485 C   0  0  2  0  0  0  0  0  0  0  0  0
   -4.2511    0.9010    1.0804 C   0  0  0  0  0  0  0  0  0  0  0  0
    3.0590   -2.0064    0.0062 H   0  0  0  0  0  0  0  0  0  0  0  0
    2.2898   -3.0199   -1.2532 H   0  0  0  0  0  0  0  0  0  0  0  0
    1.4941   -3.6861    1.0265 H   0  0  0  0  0  0  0  0  0  0  0  0
    0.1582   -3.0575    0.0564 H   0  0  0  0  0  0  0  0  0  0  0  0
    0.0188   -0.0024    1.8023 H   0  0  0  0  0  0  0  0  0  0  0  0
   -1.6837    1.2614    1.3291 H   0  0  0  0  0  0  0  0  0  0  0  0
   -2.1116   -0.8411    0.8269 H   0  0  0  0  0  0  0  0  0  0  0  0
   -4.3630   -1.2292    0.4415 H   0  0  0  0  0  0  0  0  0  0  0  0
   -4.0401   -0.2576   -2.0552 H   0  0  0  0  0  0  0  0  0  0  0  0
   -5.5650    0.1506   -1.2467 H   0  0  0  0  0  0  0  0  0  0  0  0
   -4.9923    2.3633   -1.1979 H   0  0  0  0  0  0  0  0  0  0  0  0
   -3.4351    2.0214   -1.9685 H   0  0  0  0  0  0  0  0  0  0  0  0
   -3.3990    2.9040    0.6226 H   0  0  0  0  0  0  0  0  0  0  0  0
   -5.3134    1.1615    1.1265 H   0  0  0  0  0  0  0  0  0  0  0  0
   -3.8664    0.7589    2.0970 H   0  0  0  0  0  0  0  0  0  0  0  0
  1  2  2  0  0  0  0
  2  7  1  0  0  0  0
  2  3  1  0  0  0  0
  3  4  1  0  0  0  0
  3 18  1  0  0  0  0
  3 19  1  0  0  0  0
  4  5  1  0  0  0  0
  4 20  1  0  0  0  0
  4 21  1  0  0  0  0
  5  6  1  0  0  0  0
  6  7  2  0  0  0  0
  6 22  1  0  0  0  0
  7  8  1  0  0  0  0
  8  9  1  0  0  0  0
  9 10  2  0  0  0  0
 11  9  1  0  0  0  0
 11 12  1  0  0  0  0
 11 16  1  0  0  0  0
 11 23  1  6  0  0  0
 12 13  1  0  0  0  0
 12 24  1  0  0  0  0
 13 14  1  0  0  0  0
 13 17  1  0  0  0  0
 13 25  1  1  0  0  0
 14 15  1  0  0  0  0
 14 26  1  0  0  0  0
 14 27  1  0  0  0  0
 15 28  1  0  0  0  0
 15 29  1  0  0  0  0
 16 15  1  0  0  0  0
 16 17  1  0  0  0  0
 16 30  1  6  0  0  0
 17 31  1  0  0  0  0
 17 32  1  0  0  0  0
M  END
$$$$
