
 OpenBabel03202621292D

 21 20  0  0  1  0  0  0  0  0999 V2000
    4.3301   -1.5000    0.0000 C   0  0  0  0  0  0  0  0  0  0  0  0
    4.3301   -0.5000    0.0000 C   0  0  0  0  0  0  0  0  0  0  0  0
    3.4641    0.0000    0.0000 C   0  0  2  0  0  0  0  0  0  0  0  0
    3.4641    1.0000    0.0000 C   0  0  0  0  0  0  0  0  0  0  0  0
    2.0837   -0.5971   -0.0000 S   0  0  0  0  0  0  0  0  0  0  0  0
    1.4357    1.0439    0.0006 C   0  0  0  0  0  0  0  0  0  0  0  0
    0.8853    2.1375   -0.0000 O   0  0  0  0  0  0  0  0  0  0  0  0
    0.8660   -0.5000    0.0000 S   0  0  0  0  0  0  0  0  0  0  0  0
    0.0000    0.0000    0.0000 C   0  0  0  0  0  0  0  0  0  0  0  0
    3.4081   -2.1192    0.0000 H   0  0  0  0  0  0  0  0  0  0  0  0
    5.3537   -2.0474    0.0000 H   0  0  0  0  0  0  0  0  0  0  0  0
    4.3301   -2.5700    0.0000 H   0  0  0  0  0  0  0  0  0  0  0  0
    5.4791   -0.6122    0.0000 H   0  0  0  0  0  0  0  0  0  0  0  0
    5.5079    0.2392    0.0000 H   0  0  0  0  0  0  0  0  0  0  0  0
    4.2212    0.5741   -0.0000 H   0  0  0  0  0  0  0  0  0  0  0  0
    4.6355    1.8300    0.0000 H   0  0  0  0  0  0  0  0  0  0  0  0
    2.7875    1.8535   -0.0000 H   0  0  0  0  0  0  0  0  0  0  0  0
    3.4641    2.0700    0.0000 H   0  0  0  0  0  0  0  0  0  0  0  0
   -0.3668    1.0459   -0.0000 H   0  0  0  0  0  0  0  0  0  0  0  0
   -0.7545   -0.8143   -0.0000 H   0  0  0  0  0  0  0  0  0  0  0  0
   -0.9266    0.5350    0.0000 H   0  0  0  0  0  0  0  0  0  0  0  0
  1  2  1  0  0  0  0
  1 10  1  0  0  0  0
  1 11  1  0  0  0  0
  1 12  1  0  0  0  0
  2  3  1  0  0  0  0
  2 13  1  0  0  0  0
  2 14  1  0  0  0  0
  3  4  1  0  0  0  0
  3  5  1  0  0  0  0
  3 15  1  6  0  0  0
  4 16  1  0  0  0  0
  4 17  1  0  0  0  0
  4 18  1  0  0  0  0
  5  6  1  0  0  0  0
  6  7  2  0  0  0  0
  6  8  1  0  0  0  0
  8  9  1  0  0  0  0
  9 19  1  0  0  0  0
  9 20  1  0  0  0  0
  9 21  1  0  0  0  0
M  END
$$$$
