
 OpenBabel03202621392D

 37 38  0  0  1  0  0  0  0  0999 V2000
    4.3301    1.5000    0.0000 C   0  0  0  0  0  0  0  0  0  0  0  0
    3.4641    1.0000    0.0000 C   0  0  1  0  0  0  0  0  0  0  0  0
    3.5078   -0.5099    0.5180 C   0  0  0  0  0  0  0  0  0  0  0  0
    2.7370   -0.7959    1.6771 O   0  0  0  0  0  0  0  0  0  0  0  0
    1.3737   -0.4603    1.4546 C   0  0  0  0  0  0  0  0  0  0  0  0
    1.2943    1.0444    1.4727 C   0  0  0  0  0  0  0  0  0  0  0  0
    2.0579    1.6475    0.2937 C   0  0  2  0  0  0  0  0  0  0  0  0
    2.1032    3.0748    0.4686 O   0  0  0  0  0  0  0  0  0  0  0  0
    1.2144    3.8019   -0.4063 C   0  0  0  0  0  0  0  0  0  0  0  0
   -0.2835    3.4424   -0.3274 C   0  0  0  0  0  0  0  0  0  0  0  0
   -0.5574    2.4158   -1.2810 O   0  0  0  0  0  0  0  0  0  0  0  0
   -1.5247    1.4781   -0.9668 C   0  0  0  0  0  0  0  0  0  0  0  0
   -2.6697    1.7647   -0.3327 C   0  0  0  0  0  0  0  0  0  0  0  0
   -3.6788    0.7003   -0.0354 C   0  0  0  0  0  0  0  0  0  0  0  0
   -3.2115   -0.6487   -0.1002 O   0  0  0  0  0  0  0  0  0  0  0  0
   -2.1110   -0.8534   -0.8849 C   0  0  0  0  0  0  0  0  0  0  0  0
   -1.2727    0.0800   -1.3767 C   0  0  0  0  0  0  0  0  0  0  0  0
   -0.2606   -0.0813   -2.1121 O   0  5  0  0  0  0  0  0  0  0  0  0
    5.0316    0.7713   -0.4813 H   0  0  0  0  0  0  0  0  0  0  0  0
    4.5039    1.5622    1.0994 H   0  0  0  0  0  0  0  0  0  0  0  0
    5.2567    2.0350    0.0000 H   0  0  0  0  0  0  0  0  0  0  0  0
    3.2633    0.7927   -1.0748 H   0  0  0  0  0  0  0  0  0  0  0  0
    4.5341   -0.8165    0.7668 H   0  0  0  0  0  0  0  0  0  0  0  0
    3.1904   -1.1875   -0.2868 H   0  0  0  0  0  0  0  0  0  0  0  0
    0.7823   -0.8838    2.2708 H   0  0  0  0  0  0  0  0  0  0  0  0
    1.0106   -0.9020    0.5197 H   0  0  0  0  0  0  0  0  0  0  0  0
    1.7130    1.4352    2.4079 H   0  0  0  0  0  0  0  0  0  0  0  0
    0.2450    1.3457    1.4568 H   0  0  0  0  0  0  0  0  0  0  0  0
    1.4713    1.4285   -0.6013 H   0  0  0  0  0  0  0  0  0  0  0  0
    1.3237    4.8498   -0.1069 H   0  0  0  0  0  0  0  0  0  0  0  0
    1.5895    3.7076   -1.4314 H   0  0  0  0  0  0  0  0  0  0  0  0
   -0.8802    4.3136   -0.6178 H   0  0  0  0  0  0  0  0  0  0  0  0
   -0.5559    3.1567    0.6939 H   0  0  0  0  0  0  0  0  0  0  0  0
   -2.9199    2.7800   -0.0598 H   0  0  0  0  0  0  0  0  0  0  0  0
   -4.0679    0.8483    0.9773 H   0  0  0  0  0  0  0  0  0  0  0  0
   -4.5265    0.7960   -0.7238 H   0  0  0  0  0  0  0  0  0  0  0  0
   -1.9605   -1.9084   -1.0706 H   0  0  0  0  0  0  0  0  0  0  0  0
  1 19  1  0  0  0  0
  1 20  1  0  0  0  0
  1 21  1  0  0  0  0
  2  1  1  0  0  0  0
  2  3  1  0  0  0  0
  2  7  1  0  0  0  0
  2 22  1  6  0  0  0
  3  4  1  0  0  0  0
  3 23  1  0  0  0  0
  3 24  1  0  0  0  0
  4  5  1  0  0  0  0
  5  6  1  0  0  0  0
  5 25  1  0  0  0  0
  5 26  1  0  0  0  0
  6  7  1  0  0  0  0
  6 27  1  0  0  0  0
  6 28  1  0  0  0  0
  7  8  1  0  0  0  0
  7 29  1  1  0  0  0
  8  9  1  0  0  0  0
  9 10  1  0  0  0  0
  9 30  1  0  0  0  0
  9 31  1  0  0  0  0
 10 11  1  0  0  0  0
 10 32  1  0  0  0  0
 10 33  1  0  0  0  0
 11 12  1  0  0  0  0
 12 17  1  0  0  0  0
 12 13  2  0  0  0  0
 13 14  1  0  0  0  0
 13 34  1  0  0  0  0
 14 15  1  0  0  0  0
 14 35  1  0  0  0  0
 14 36  1  0  0  0  0
 15 16  1  0  0  0  0
 16 17  2  0  0  0  0
 16 37  1  0  0  0  0
 17 18  1  0  0  0  0
M  CHG  1  18  -1
M  END
$$$$
