
 OpenBabel03202621312D

 16 15  0  0  1  0  0  0  0  0999 V2000
    2.5981    0.5000    0.0000 C   0  0  0  0  0  0  0  0  0  0  0  0
    2.5981    1.5000    0.0000 C   0  0  0  0  0  0  0  0  0  0  0  0
    3.7307    2.0596   -0.0175 O   0  0  0  0  0  0  0  0  0  0  0  0
    1.7321    2.0000    0.0000 C   0  0  1  0  0  0  0  0  0  0  0  0
    1.7321    3.0000    0.0000 C   0  0  0  0  0  0  0  0  0  0  0  0
    0.7150    1.4776    1.0090 O   0  0  0  0  0  0  0  0  0  0  0  0
   -0.2375    0.6083    0.5894 C   0  0  0  0  0  0  0  0  0  0  0  0
   -1.3972    0.6129    0.9828 O   0  0  0  0  0  0  0  0  0  0  0  0
    3.1061    0.3261    0.9905 H   0  0  0  0  0  0  0  0  0  0  0  0
    3.2658    0.3054   -0.8857 H   0  0  0  0  0  0  0  0  0  0  0  0
    2.5981   -0.5700    0.0000 H   0  0  0  0  0  0  0  0  0  0  0  0
    1.2410    1.7130   -0.9752 H   0  0  0  0  0  0  0  0  0  0  0  0
    1.8684    3.2486    1.1000 H   0  0  0  0  0  0  0  0  0  0  0  0
    0.6540    3.2442   -0.2385 H   0  0  0  0  0  0  0  0  0  0  0  0
    1.7321    4.0700    0.0000 H   0  0  0  0  0  0  0  0  0  0  0  0
    0.1518   -0.1380   -0.1208 H   0  0  0  0  0  0  0  0  0  0  0  0
  1  2  1  0  0  0  0
  1  9  1  0  0  0  0
  1 10  1  0  0  0  0
  1 11  1  0  0  0  0
  2  3  2  0  0  0  0
  2  4  1  0  0  0  0
  4  5  1  0  0  0  0
  4  6  1  0  0  0  0
  4 12  1  1  0  0  0
  5 13  1  0  0  0  0
  5 14  1  0  0  0  0
  5 15  1  0  0  0  0
  6  7  1  0  0  0  0
  7  8  2  0  0  0  0
  7 16  1  0  0  0  0
M  END
$$$$
