
 OpenBabel03202621382D

 27 28  0  0  1  0  0  0  0  0999 V2000
    2.0017   -3.0003    0.3454 N   0  0  0  0  0  0  0  0  0  0  0  0
    2.5532   -1.7816    0.1532 N   0  0  0  0  0  0  0  0  0  0  0  0
    1.7141   -0.8056    0.1185 C   0  0  0  0  0  0  0  0  0  0  0  0
    0.2093   -0.6813    0.1704 C   0  0  0  0  0  0  0  0  0  0  0  0
    0.4094    0.7688   -0.3965 C   0  0  3  0  0  0  0  0  0  0  0  0
   -0.4598    1.8575    0.2917 C   0  0  0  0  0  0  0  0  0  0  0  0
   -0.2086    2.3316    1.3985 O   0  0  0  0  0  0  0  0  0  0  0  0
   -1.5983    2.0191   -0.4566 O   0  0  0  0  0  0  0  0  0  0  0  0
   -2.6793    2.8957   -0.1660 C   0  0  0  0  0  0  0  0  0  0  0  0
   -3.9155    2.3717   -0.1034 C   0  0  0  0  0  0  0  0  0  0  0  0
   -5.0944    3.0580   -0.0060 O   0  0  0  0  0  0  0  0  0  0  0  0
   -4.9926    4.4931    0.0443 C   0  0  0  0  0  0  0  0  0  0  0  0
   -3.6207    5.0724   -0.0667 C   0  0  0  0  0  0  0  0  0  0  0  0
   -2.4989    4.3531   -0.2064 C   0  0  0  0  0  0  0  0  0  0  0  0
   -1.3162    4.7321   -0.3963 O   0  5  0  0  0  0  0  0  0  0  0  0
    1.9386    0.6766   -0.0868 C   0  0  0  0  0  0  0  0  0  0  0  0
    1.2198   -3.1895   -0.2821 H   0  0  0  0  0  0  0  0  0  0  0  0
    2.7017   -3.7239    0.1753 H   0  0  0  0  0  0  0  0  0  0  0  0
   -0.3379   -1.3588   -0.4882 H   0  0  0  0  0  0  0  0  0  0  0  0
   -0.1913   -0.7349    1.1874 H   0  0  0  0  0  0  0  0  0  0  0  0
    0.2529    0.7840   -1.4882 H   0  0  0  0  0  0  0  0  0  0  0  0
   -4.0986    1.3111   -0.1701 H   0  0  0  0  0  0  0  0  0  0  0  0
   -5.4624    4.8177    0.9769 H   0  0  0  0  0  0  0  0  0  0  0  0
   -5.6032    4.8830   -0.7793 H   0  0  0  0  0  0  0  0  0  0  0  0
   -3.5396    6.1622   -0.0708 H   0  0  0  0  0  0  0  0  0  0  0  0
    2.5982    0.9113   -0.9260 H   0  0  0  0  0  0  0  0  0  0  0  0
    2.2774    1.1866    0.8186 H   0  0  0  0  0  0  0  0  0  0  0  0
  1  2  1  0  0  0  0
  1 17  1  0  0  0  0
  1 18  1  0  0  0  0
  2  3  2  3  0  0  0
  3 16  1  0  0  0  0
  3  4  1  0  0  0  0
  4  5  1  0  0  0  0
  4 19  1  0  0  0  0
  4 20  1  0  0  0  0
  5  6  1  0  0  0  0
  5 16  1  0  0  0  0
  5 21  1  0  0  0  0
  6  7  2  0  0  0  0
  6  8  1  0  0  0  0
  8  9  1  0  0  0  0
  9 14  1  0  0  0  0
  9 10  2  0  0  0  0
 10 11  1  0  0  0  0
 10 22  1  0  0  0  0
 11 12  1  0  0  0  0
 12 13  1  0  0  0  0
 12 23  1  0  0  0  0
 12 24  1  0  0  0  0
 13 14  2  0  0  0  0
 13 25  1  0  0  0  0
 14 15  1  0  0  0  0
 16 26  1  0  0  0  0
 16 27  1  0  0  0  0
M  CHG  1  15  -1
M  END
$$$$
