
 OpenBabel03202621392D

 31 31  0  0  1  0  0  0  0  0999 V2000
   -0.8952    3.3159   -0.2458 C   0  0  0  0  0  0  0  0  0  0  0  0
   -2.3766    3.1816    0.0808 C   0  0  0  0  0  0  0  0  0  0  0  0
   -2.9829    1.9111    0.3062 O   0  0  0  0  0  0  0  0  0  0  0  0
   -2.5476    0.7039   -0.3706 C   0  0  2  0  0  0  0  0  0  0  0  0
   -3.6175   -0.3332   -0.0381 C   0  0  0  0  0  0  0  0  0  0  0  0
   -4.7874    0.0037   -0.6644 F   0  0  0  0  0  0  0  0  0  0  0  0
   -1.1249    0.3618    0.0979 C   0  0  0  0  0  0  0  0  0  0  0  0
   -0.5268   -1.0172    0.5234 C   0  0  3  0  0  0  0  0  0  0  0  0
   -1.1567   -1.5414    1.7041 O   0  0  0  0  0  0  0  0  0  0  0  0
   -0.7156   -2.1007   -0.5520 C   0  0  0  0  0  0  0  0  0  0  0  0
    0.3998   -3.1314   -0.4317 C   0  0  0  0  0  0  0  0  0  0  0  0
    1.6683   -2.5492   -0.7115 O   0  0  0  0  0  0  0  0  0  0  0  0
    1.9086   -1.4970    0.1432 C   0  0  0  0  0  0  0  0  0  0  0  0
    1.0022   -0.7904    0.8315 C   0  0  0  0  0  0  0  0  0  0  0  0
    1.2406    0.1380    1.6634 O   0  5  0  0  0  0  0  0  0  0  0  0
   -0.6490    2.8390   -1.1981 H   0  0  0  0  0  0  0  0  0  0  0  0
   -0.6258    4.3746   -0.3285 H   0  0  0  0  0  0  0  0  0  0  0  0
   -0.2570    2.8966    0.5350 H   0  0  0  0  0  0  0  0  0  0  0  0
   -2.9573    3.7070   -0.6822 H   0  0  0  0  0  0  0  0  0  0  0  0
   -2.5414    3.7307    1.0162 H   0  0  0  0  0  0  0  0  0  0  0  0
   -2.5733    0.8931   -1.4514 H   0  0  0  0  0  0  0  0  0  0  0  0
   -3.3678   -1.3327   -0.3881 H   0  0  0  0  0  0  0  0  0  0  0  0
   -3.8361   -0.3546    1.0336 H   0  0  0  0  0  0  0  0  0  0  0  0
   -0.4734    0.7246   -0.7121 H   0  0  0  0  0  0  0  0  0  0  0  0
   -0.9739    1.0059    0.9670 H   0  0  0  0  0  0  0  0  0  0  0  0
   -2.0930   -1.3348    1.6746 H   0  0  0  0  0  0  0  0  0  0  0  0
   -0.7030   -1.6728   -1.5537 H   0  0  0  0  0  0  0  0  0  0  0  0
   -1.6630   -2.6353   -0.4092 H   0  0  0  0  0  0  0  0  0  0  0  0
    0.4248   -3.6065    0.5580 H   0  0  0  0  0  0  0  0  0  0  0  0
    0.2493   -3.9288   -1.1659 H   0  0  0  0  0  0  0  0  0  0  0  0
    2.9667   -1.2935    0.2107 H   0  0  0  0  0  0  0  0  0  0  0  0
  1  2  1  0  0  0  0
  1 16  1  0  0  0  0
  1 17  1  0  0  0  0
  1 18  1  0  0  0  0
  2  3  1  0  0  0  0
  2 19  1  0  0  0  0
  2 20  1  0  0  0  0
  3  4  1  0  0  0  0
  4  5  1  0  0  0  0
  4  7  1  0  0  0  0
  4 21  1  6  0  0  0
  5  6  1  0  0  0  0
  5 22  1  0  0  0  0
  5 23  1  0  0  0  0
  7  8  1  0  0  0  0
  7 24  1  0  0  0  0
  7 25  1  0  0  0  0
  8 14  1  0  0  0  0
  8  9  1  0  0  0  0
  8 10  1  0  0  0  0
  9 26  1  0  0  0  0
 10 11  1  0  0  0  0
 10 27  1  0  0  0  0
 10 28  1  0  0  0  0
 11 12  1  0  0  0  0
 11 29  1  0  0  0  0
 11 30  1  0  0  0  0
 12 13  1  0  0  0  0
 13 14  2  0  0  0  0
 13 31  1  0  0  0  0
 14 15  1  0  0  0  0
M  CHG  1  15  -1
M  END
$$$$
