
 OpenBabel03202621322D

 25 26  0  0  0  0  0  0  0  0999 V2000
    5.1013   -2.4479    0.0000 C   0  0  0  0  0  0  0  0  0  0  0  0
    4.3581   -1.7788    0.0000 N   0  0  0  0  0  0  0  0  0  0  0  0
    3.1170   -2.0867    0.5057 C   0  0  0  0  0  0  0  0  0  0  0  0
    2.7769   -3.2615    1.0509 N   0  0  0  0  0  0  0  0  0  0  0  0
    1.4630   -3.1208    1.4527 O   0  0  0  0  0  0  0  0  0  0  0  0
    0.9754   -1.8689    1.1355 N   0  0  0  0  0  0  0  0  0  0  0  0
    1.9760   -1.2273    0.5188 C   0  0  0  0  0  0  0  0  0  0  0  0
    1.9209    0.1209   -0.0479 C   0  0  0  0  0  0  0  0  0  0  0  0
    2.9724    0.6871   -0.3657 O   0  0  0  0  0  0  0  0  0  0  0  0
    0.7201    0.7334   -0.3088 O   0  0  0  0  0  0  0  0  0  0  0  0
   -0.5826    0.1778   -0.2002 C   0  0  0  0  0  0  0  0  0  0  0  0
   -0.9729   -0.8820   -0.9232 C   0  0  0  0  0  0  0  0  0  0  0  0
   -2.3556   -1.4265   -0.7812 C   0  0  0  0  0  0  0  0  0  0  0  0
   -3.3279   -0.5374   -0.2215 O   0  0  0  0  0  0  0  0  0  0  0  0
   -2.8318    0.4787    0.5513 C   0  0  0  0  0  0  0  0  0  0  0  0
   -1.5477    0.8739    0.6526 C   0  0  0  0  0  0  0  0  0  0  0  0
   -1.0354    1.7795    1.3643 O   0  5  0  0  0  0  0  0  0  0  0  0
    5.7396   -2.0088    0.7983 H   0  0  0  0  0  0  0  0  0  0  0  0
    5.5576   -2.2140   -0.9862 H   0  0  0  0  0  0  0  0  0  0  0  0
    5.8965   -3.1638    0.0000 H   0  0  0  0  0  0  0  0  0  0  0  0
    4.4663   -0.7922   -0.2632 H   0  0  0  0  0  0  0  0  0  0  0  0
   -0.2871   -1.3917   -1.5850 H   0  0  0  0  0  0  0  0  0  0  0  0
   -2.3277   -2.3308   -0.1618 H   0  0  0  0  0  0  0  0  0  0  0  0
   -2.7284   -1.7234   -1.7672 H   0  0  0  0  0  0  0  0  0  0  0  0
   -3.6271    0.9726    1.0934 H   0  0  0  0  0  0  0  0  0  0  0  0
  1  2  1  0  0  0  0
  1 18  1  0  0  0  0
  1 19  1  0  0  0  0
  1 20  1  0  0  0  0
  2  3  1  0  0  0  0
  2 21  1  0  0  0  0
  3  7  1  0  0  0  0
  3  4  2  0  0  0  0
  4  5  1  0  0  0  0
  5  6  1  0  0  0  0
  6  7  2  0  0  0  0
  7  8  1  0  0  0  0
  8  9  2  0  0  0  0
  8 10  1  0  0  0  0
 10 11  1  0  0  0  0
 11 16  1  0  0  0  0
 11 12  2  0  0  0  0
 12 13  1  0  0  0  0
 12 22  1  0  0  0  0
 13 14  1  0  0  0  0
 13 23  1  0  0  0  0
 13 24  1  0  0  0  0
 14 15  1  0  0  0  0
 15 16  2  0  0  0  0
 15 25  1  0  0  0  0
 16 17  1  0  0  0  0
M  CHG  1  17  -1
M  END
$$$$
