
 OpenBabel03202621382D

 36 37  0  0  0  0  0  0  0  0999 V2000
    0.8660   -2.5000    0.0000 C   0  0  0  0  0  0  0  0  0  0  0  0
    0.8660   -1.5000    0.0000 O   0  0  0  0  0  0  0  0  0  0  0  0
   -0.2757   -0.7743    0.1425 C   0  0  0  0  0  0  0  0  0  0  0  0
   -1.4467   -1.2684    0.7049 C   0  0  0  0  0  0  0  0  0  0  0  0
   -2.5845   -0.4673    0.7237 C   0  0  0  0  0  0  0  0  0  0  0  0
   -2.5909    0.8009    0.1258 C   0  0  0  0  0  0  0  0  0  0  0  0
   -3.7921    1.4939   -0.1623 N   0  0  0  0  0  0  0  0  0  0  0  0
   -5.0149    0.9176   -0.4434 C   0  0  0  0  0  0  0  0  0  0  0  0
   -5.9858    1.5795   -0.7860 O   0  0  0  0  0  0  0  0  0  0  0  0
   -4.9546   -0.4442   -0.4388 O   0  0  0  0  0  0  0  0  0  0  0  0
   -6.0629   -1.2925   -0.4654 C   0  0  0  0  0  0  0  0  0  0  0  0
   -5.9540   -2.4965   -1.0395 C   0  0  0  0  0  0  0  0  0  0  0  0
   -6.8804   -3.5046   -1.0254 O   0  0  0  0  0  0  0  0  0  0  0  0
   -7.9170   -3.3331   -0.0500 C   0  0  0  0  0  0  0  0  0  0  0  0
   -8.4656   -1.9185   -0.0319 C   0  0  0  0  0  0  0  0  0  0  0  0
   -7.3107   -1.0091    0.2838 C   0  0  0  0  0  0  0  0  0  0  0  0
   -7.3802   -0.1211    1.1271 O   0  0  0  0  0  0  0  0  0  0  0  0
   -1.3693    1.3559   -0.2683 C   0  0  0  0  0  0  0  0  0  0  0  0
   -1.2839    2.6184   -0.7973 O   0  0  0  0  0  0  0  0  0  0  0  0
   -1.4346    3.6297    0.2039 C   0  0  0  0  0  0  0  0  0  0  0  0
   -0.2209    0.5603   -0.2858 C   0  0  0  0  0  0  0  0  0  0  0  0
    1.2680   -2.6871    1.0192 H   0  0  0  0  0  0  0  0  0  0  0  0
    1.6931   -2.6765   -0.7165 H   0  0  0  0  0  0  0  0  0  0  0  0
    0.8660   -3.5700    0.0000 H   0  0  0  0  0  0  0  0  0  0  0  0
   -1.4985   -2.2715    1.1146 H   0  0  0  0  0  0  0  0  0  0  0  0
   -3.4738   -0.8778    1.1927 H   0  0  0  0  0  0  0  0  0  0  0  0
   -3.7205    2.4446   -0.4908 H   0  0  0  0  0  0  0  0  0  0  0  0
   -5.0683   -2.8008   -1.5866 H   0  0  0  0  0  0  0  0  0  0  0  0
   -7.5182   -3.6183    0.9327 H   0  0  0  0  0  0  0  0  0  0  0  0
   -8.7122   -4.0420   -0.2984 H   0  0  0  0  0  0  0  0  0  0  0  0
   -9.2397   -1.8154    0.7344 H   0  0  0  0  0  0  0  0  0  0  0  0
   -8.8751   -1.6302   -1.0057 H   0  0  0  0  0  0  0  0  0  0  0  0
   -0.4640    4.1021    0.3829 H   0  0  0  0  0  0  0  0  0  0  0  0
   -1.8341    3.2634    1.1566 H   0  0  0  0  0  0  0  0  0  0  0  0
   -2.1186    4.3902   -0.1868 H   0  0  0  0  0  0  0  0  0  0  0  0
    0.7098    0.9640   -0.6759 H   0  0  0  0  0  0  0  0  0  0  0  0
  1  2  1  0  0  0  0
  1 22  1  0  0  0  0
  1 23  1  0  0  0  0
  1 24  1  0  0  0  0
  2  3  1  0  0  0  0
  3 21  2  0  0  0  0
  3  4  1  0  0  0  0
  4  5  2  0  0  0  0
  4 25  1  0  0  0  0
  5  6  1  0  0  0  0
  5 26  1  0  0  0  0
  6  7  1  0  0  0  0
  6 18  2  0  0  0  0
  7  8  1  0  0  0  0
  7 27  1  0  0  0  0
  8  9  2  0  0  0  0
  8 10  1  0  0  0  0
 10 11  1  0  0  0  0
 11 16  1  0  0  0  0
 11 12  2  0  0  0  0
 12 13  1  0  0  0  0
 12 28  1  0  0  0  0
 13 14  1  0  0  0  0
 14 15  1  0  0  0  0
 14 29  1  0  0  0  0
 14 30  1  0  0  0  0
 15 16  1  0  0  0  0
 15 31  1  0  0  0  0
 15 32  1  0  0  0  0
 16 17  2  0  0  0  0
 18 19  1  0  0  0  0
 18 21  1  0  0  0  0
 19 20  1  0  0  0  0
 20 33  1  0  0  0  0
 20 34  1  0  0  0  0
 20 35  1  0  0  0  0
 21 36  1  0  0  0  0
M  END
$$$$
