
 OpenBabel03202621312D

 26 27  0  0  1  0  0  0  0  0999 V2000
    5.1962    3.0000    0.0000 C   0  0  0  0  0  0  0  0  0  0  0  0
    4.3301    3.5000    0.0000 S   0  0  0  0  0  0  0  0  0  0  0  0
    2.8341    2.7521   -0.3776 C   0  0  0  0  0  0  0  0  0  0  0  0
    1.9191    3.4492   -0.7961 O   0  0  0  0  0  0  0  0  0  0  0  0
    2.7768    1.3977   -0.1447 N   0  0  0  0  0  0  0  0  0  0  0  0
    1.5737    0.6689   -0.1021 C   0  0  0  0  0  0  0  0  0  0  0  0
    1.5982   -0.7074   -0.3324 C   0  0  0  0  0  0  0  0  0  0  0  0
    0.3990   -1.4318   -0.3649 C   0  0  0  0  0  0  0  0  0  0  0  0
   -0.8197   -0.7901   -0.1376 C   0  0  0  0  0  0  0  0  0  0  0  0
   -0.8343    0.5730    0.1509 C   0  0  0  0  0  0  0  0  0  0  0  0
    0.3546    1.2919    0.1845 C   0  0  0  0  0  0  0  0  0  0  0  0
   -1.9726    1.2888    0.4042 O   0  0  0  0  0  0  0  0  0  0  0  0
   -3.1014    0.6394   -0.1761 C   0  0  1  0  0  0  0  0  0  0  0  0
   -4.2085    1.2637    0.3163 F   0  0  0  0  0  0  0  0  0  0  0  0
   -3.1337   -0.8564    0.1378 C   0  0  0  0  0  0  0  0  0  0  0  0
   -4.1642   -1.4469   -0.5262 F   0  0  0  0  0  0  0  0  0  0  0  0
   -3.3370   -1.0906    1.4596 F   0  0  0  0  0  0  0  0  0  0  0  0
   -1.9477   -1.5551   -0.2446 O   0  0  0  0  0  0  0  0  0  0  0  0
    5.1747    2.6009    1.0338 H   0  0  0  0  0  0  0  0  0  0  0  0
    5.8910    3.8610   -0.0151 H   0  0  0  0  0  0  0  0  0  0  0  0
    6.1229    2.4650    0.0000 H   0  0  0  0  0  0  0  0  0  0  0  0
    3.6518    0.8934   -0.1031 H   0  0  0  0  0  0  0  0  0  0  0  0
    2.5319   -1.2255   -0.5368 H   0  0  0  0  0  0  0  0  0  0  0  0
    0.4183   -2.4974   -0.5827 H   0  0  0  0  0  0  0  0  0  0  0  0
    0.3010    2.3486    0.4340 H   0  0  0  0  0  0  0  0  0  0  0  0
   -3.0876    0.8155   -1.2588 H   0  0  0  0  0  0  0  0  0  0  0  0
  1  2  1  0  0  0  0
  1 19  1  0  0  0  0
  1 20  1  0  0  0  0
  1 21  1  0  0  0  0
  2  3  1  0  0  0  0
  3  4  2  0  0  0  0
  3  5  1  0  0  0  0
  5  6  1  0  0  0  0
  5 22  1  0  0  0  0
  6 11  2  0  0  0  0
  6  7  1  0  0  0  0
  7  8  2  0  0  0  0
  7 23  1  0  0  0  0
  8  9  1  0  0  0  0
  8 24  1  0  0  0  0
  9 18  1  0  0  0  0
  9 10  2  0  0  0  0
 10 11  1  0  0  0  0
 10 12  1  0  0  0  0
 11 25  1  0  0  0  0
 12 13  1  0  0  0  0
 13 14  1  0  0  0  0
 13 15  1  0  0  0  0
 13 26  1  1  0  0  0
 15 16  1  0  0  0  0
 15 17  1  0  0  0  0
 15 18  1  0  0  0  0
M  END
$$$$
