
 OpenBabel03202621392D

 22 21  0  0  1  0  0  0  0  0999 V2000
    4.3301   -1.5000    0.0000 C   0  0  0  0  0  0  0  0  0  0  0  0
    4.3301   -0.5000    0.0000 C   0  0  0  0  0  0  0  0  0  0  0  0
    4.2081    0.7384    0.9356 C   0  0  1  0  0  0  0  0  0  0  0  0
    4.3862    1.9571    0.0792 N   0  0  0  0  0  0  0  0  0  0  0  0
    2.8770    0.6864    1.5561 C   0  0  0  0  0  0  0  0  0  0  0  0
    1.3961    0.6457    1.3875 C   0  0  0  0  0  0  0  0  0  0  0  0
    0.6299    1.3917    1.9940 O   0  0  0  0  0  0  0  0  0  0  0  0
    0.8660   -0.5000    0.0000 S   0  0  0  0  0  0  0  0  0  0  0  0
    0.0000    0.0000    0.0000 C   0  0  0  0  0  0  0  0  0  0  0  0
    3.2761   -1.6963   -0.2832 H   0  0  0  0  0  0  0  0  0  0  0  0
    4.9610   -1.7404   -0.9038 H   0  0  0  0  0  0  0  0  0  0  0  0
    4.3301   -2.5700    0.0000 H   0  0  0  0  0  0  0  0  0  0  0  0
    5.4173   -0.2625   -0.1381 H   0  0  0  0  0  0  0  0  0  0  0  0
    3.9508   -0.0954   -0.9713 H   0  0  0  0  0  0  0  0  0  0  0  0
    4.9919    0.7783    1.7075 H   0  0  0  0  0  0  0  0  0  0  0  0
    5.2358    2.4710    0.2947 H   0  0  0  0  0  0  0  0  0  0  0  0
    3.6016    2.5992    0.1228 H   0  0  0  0  0  0  0  0  0  0  0  0
    2.9362   -0.2736    2.1111 H   0  0  0  0  0  0  0  0  0  0  0  0
    2.6534    0.7378    0.4863 H   0  0  0  0  0  0  0  0  0  0  0  0
   -0.0189    0.3127   -1.0625 H   0  0  0  0  0  0  0  0  0  0  0  0
   -0.6936   -0.8561    0.1134 H   0  0  0  0  0  0  0  0  0  0  0  0
   -0.9266    0.5350    0.0000 H   0  0  0  0  0  0  0  0  0  0  0  0
  1  2  1  0  0  0  0
  1 10  1  0  0  0  0
  1 11  1  0  0  0  0
  1 12  1  0  0  0  0
  2  3  1  0  0  0  0
  2 13  1  0  0  0  0
  2 14  1  0  0  0  0
  3  4  1  0  0  0  0
  3  5  1  0  0  0  0
  3 15  1  1  0  0  0
  4 16  1  0  0  0  0
  4 17  1  0  0  0  0
  5  6  1  0  0  0  0
  5 18  1  0  0  0  0
  5 19  1  0  0  0  0
  6  7  2  0  0  0  0
  6  8  1  0  0  0  0
  8  9  1  0  0  0  0
  9 20  1  0  0  0  0
  9 21  1  0  0  0  0
  9 22  1  0  0  0  0
M  END
$$$$
