
 OpenBabel03202621392D

 34 34  0  0  1  0  0  0  0  0999 V2000
    3.4543   -0.6389    0.0000 C   0  0  0  0  0  0  0  0  0  0  0  0
    3.6622    0.3393    0.0000 S   0  0  0  0  0  0  0  0  0  0  0  0
    2.2272    1.0589    0.8959 C   0  0  0  0  0  0  0  0  0  0  0  0
    1.0812    1.5050   -0.0290 C   0  0  2  0  0  0  0  0  0  0  0  0
    0.1718    2.3446    0.6924 O   0  0  0  0  0  0  0  0  0  0  0  0
    0.3779    0.3955   -0.8300 C   0  0  0  0  0  0  0  0  0  0  0  0
   -0.3968   -0.6003   -0.1291 N   0  0  0  0  0  0  0  0  0  0  0  0
   -1.1014   -1.6148   -0.7212 C   0  0  0  0  0  0  0  0  0  0  0  0
   -1.7705   -2.2152    0.3205 C   0  0  0  0  0  0  0  0  0  0  0  0
   -2.7076   -3.3657    0.2855 C   0  0  0  0  0  0  0  0  0  0  0  0
   -4.2017   -3.0422    0.1466 C   0  0  0  0  0  0  0  0  0  0  0  0
   -4.5701   -1.5963   -0.1936 C   0  0  0  0  0  0  0  0  0  0  0  0
   -6.0788   -1.4319   -0.3405 C   0  0  0  0  0  0  0  0  0  0  0  0
   -6.4858    0.2674   -0.6762 Cl  0  0  0  0  0  0  0  0  0  0  0  0
   -1.4483   -1.5685    1.4847 N   0  0  0  0  0  0  0  0  0  0  0  0
   -0.6192   -0.5711    1.1908 N   0  0  0  0  0  0  0  0  0  0  0  0
    3.5414   -0.8336   -1.0861 H   0  0  0  0  0  0  0  0  0  0  0  0
    4.3766   -1.0111    0.4858 H   0  0  0  0  0  0  0  0  0  0  0  0
    3.2319   -1.6855    0.0000 H   0  0  0  0  0  0  0  0  0  0  0  0
    2.6076    1.9495    1.4173 H   0  0  0  0  0  0  0  0  0  0  0  0
    1.8778    0.3945    1.6958 H   0  0  0  0  0  0  0  0  0  0  0  0
    1.5240    2.1837   -0.7754 H   0  0  0  0  0  0  0  0  0  0  0  0
   -0.7353    1.9984    0.6102 H   0  0  0  0  0  0  0  0  0  0  0  0
   -0.3328    0.8752   -1.5169 H   0  0  0  0  0  0  0  0  0  0  0  0
    1.0981   -0.1542   -1.4455 H   0  0  0  0  0  0  0  0  0  0  0  0
   -1.0850   -1.7957   -1.7830 H   0  0  0  0  0  0  0  0  0  0  0  0
   -2.4168   -4.0190   -0.5507 H   0  0  0  0  0  0  0  0  0  0  0  0
   -2.5594   -3.9772    1.1860 H   0  0  0  0  0  0  0  0  0  0  0  0
   -4.7041   -3.3224    1.0829 H   0  0  0  0  0  0  0  0  0  0  0  0
   -4.6248   -3.7096   -0.6169 H   0  0  0  0  0  0  0  0  0  0  0  0
   -4.0814   -1.2969   -1.1285 H   0  0  0  0  0  0  0  0  0  0  0  0
   -4.2123   -0.9311    0.6009 H   0  0  0  0  0  0  0  0  0  0  0  0
   -6.6029   -1.7259    0.5738 H   0  0  0  0  0  0  0  0  0  0  0  0
   -6.4621   -2.0327   -1.1710 H   0  0  0  0  0  0  0  0  0  0  0  0
  1  2  1  0  0  0  0
  1 17  1  0  0  0  0
  1 18  1  0  0  0  0
  1 19  1  0  0  0  0
  2  3  1  0  0  0  0
  3  4  1  0  0  0  0
  3 20  1  0  0  0  0
  3 21  1  0  0  0  0
  4  5  1  0  0  0  0
  4  6  1  0  0  0  0
  4 22  1  6  0  0  0
  5 23  1  0  0  0  0
  6  7  1  0  0  0  0
  6 24  1  0  0  0  0
  6 25  1  0  0  0  0
  7 16  1  0  0  0  0
  7  8  1  0  0  0  0
  8  9  2  0  0  0  0
  8 26  1  0  0  0  0
  9 10  1  0  0  0  0
  9 15  1  0  0  0  0
 10 11  1  0  0  0  0
 10 27  1  0  0  0  0
 10 28  1  0  0  0  0
 11 12  1  0  0  0  0
 11 29  1  0  0  0  0
 11 30  1  0  0  0  0
 12 13  1  0  0  0  0
 12 31  1  0  0  0  0
 12 32  1  0  0  0  0
 13 14  1  0  0  0  0
 13 33  1  0  0  0  0
 13 34  1  0  0  0  0
 15 16  2  0  0  0  0
M  END
$$$$
