
 OpenBabel03202621382D

 55 56  0  0  1  0  0  0  0  0999 V2000
    2.2514   -1.4476    0.0000 C   0  0  0  0  0  0  0  0  0  0  0  0
    1.6637   -0.6386    0.0000 C   0  0  0  0  0  0  0  0  0  0  0  0
    0.3365   -0.8504    0.7036 C   0  0  0  0  0  0  0  0  0  0  0  0
   -0.4593   -1.8969    0.5376 N   0  0  0  0  0  0  0  0  0  0  0  0
   -1.4240   -1.3648   -0.2917 C   0  0  0  0  0  0  0  0  0  0  0  0
   -1.1915   -0.0118   -0.3898 C   0  0  0  0  0  0  0  0  0  0  0  0
   -1.3675    0.9833   -1.3984 C   0  0  0  0  0  0  0  0  0  0  0  0
   -0.4579    1.5206   -2.0164 O   0  0  0  0  0  0  0  0  0  0  0  0
   -2.6641    1.3010   -1.5810 O   0  0  0  0  0  0  0  0  0  0  0  0
   -3.1989    1.8764   -0.3861 C   0  0  0  0  0  0  0  0  0  0  0  0
   -4.1177    0.8514    0.2405 C   0  0  0  0  0  0  0  0  0  0  0  0
   -5.5488    1.3366    0.0732 C   0  0  2  0  0  0  0  0  0  0  0  0
   -5.8589    2.5397    0.9298 C   0  0  0  0  0  0  0  0  0  0  0  0
   -5.0182    3.0896    1.6446 O   0  0  0  0  0  0  0  0  0  0  0  0
   -7.1017    3.2417    0.6049 C   0  0  0  0  0  0  0  0  0  0  0  0
   -8.3296    2.5761    0.5340 C   0  0  0  0  0  0  0  0  0  0  0  0
   -9.4438    3.2347    0.0273 C   0  0  0  0  0  0  0  0  0  0  0  0
   -9.3375    4.5670   -0.3772 C   0  0  0  0  0  0  0  0  0  0  0  0
   -8.1170    5.2362   -0.2838 C   0  0  0  0  0  0  0  0  0  0  0  0
   -6.9995    4.5750    0.2019 C   0  0  0  0  0  0  0  0  0  0  0  0
   -5.8141    5.2619    0.2072 O   0  0  0  0  0  0  0  0  0  0  0  0
   -6.4505    0.1563    0.2859 C   0  0  0  0  0  0  0  0  0  0  0  0
   -6.8632   -0.1111    1.4024 O   0  0  0  0  0  0  0  0  0  0  0  0
   -6.6456   -0.6841   -0.9568 C   0  0  1  0  0  0  0  0  0  0  0  0
   -6.6334   -0.1170   -2.2412 O   0  0  0  0  0  0  0  0  0  0  0  0
   -7.8107   -1.6024   -0.7026 C   0  0  0  0  0  0  0  0  0  0  0  0
   -8.9600   -1.3238   -1.0480 O   0  0  0  0  0  0  0  0  0  0  0  0
   -7.5310   -2.8062    0.1278 C   0  0  0  0  0  0  0  0  0  0  0  0
   -6.1097   -3.4067    0.0000 C   0  0  0  0  0  0  0  0  0  0  0  0
   -6.1097   -4.4067    0.0000 C   0  0  0  0  0  0  0  0  0  0  0  0
   -5.1252   -2.6876    0.1981 O   0  0  0  0  0  0  0  0  0  0  0  0
   -0.3480    0.3231    0.6310 O   0  0  0  0  0  0  0  0  0  0  0  0
    1.7735   -2.0408   -0.8230 H   0  0  0  0  0  0  0  0  0  0  0  0
    3.1831   -0.9971   -0.4277 H   0  0  0  0  0  0  0  0  0  0  0  0
    2.8803   -2.3133    0.0000 H   0  0  0  0  0  0  0  0  0  0  0  0
    2.0704    0.2133    0.5796 H   0  0  0  0  0  0  0  0  0  0  0  0
    1.4342   -0.1505   -0.9671 H   0  0  0  0  0  0  0  0  0  0  0  0
   -2.0770   -2.0082   -0.8597 H   0  0  0  0  0  0  0  0  0  0  0  0
   -2.4316    2.1992    0.3194 H   0  0  0  0  0  0  0  0  0  0  0  0
   -3.7163    2.7873   -0.7154 H   0  0  0  0  0  0  0  0  0  0  0  0
   -3.8730    0.7073    1.2995 H   0  0  0  0  0  0  0  0  0  0  0  0
   -3.9929   -0.1292   -0.2347 H   0  0  0  0  0  0  0  0  0  0  0  0
   -5.6834    1.6736   -0.9632 H   0  0  0  0  0  0  0  0  0  0  0  0
   -8.4622    1.5477    0.8544 H   0  0  0  0  0  0  0  0  0  0  0  0
  -10.3910    2.7063   -0.0609 H   0  0  0  0  0  0  0  0  0  0  0  0
  -10.2084    5.0780   -0.7709 H   0  0  0  0  0  0  0  0  0  0  0  0
   -8.0375    6.2727   -0.6020 H   0  0  0  0  0  0  0  0  0  0  0  0
   -5.1713    4.7685    0.7607 H   0  0  0  0  0  0  0  0  0  0  0  0
   -5.7349   -1.2651   -1.0099 H   0  0  0  0  0  0  0  0  0  0  0  0
   -6.0314   -0.6702   -2.7826 H   0  0  0  0  0  0  0  0  0  0  0  0
   -8.2745   -3.5576   -0.1887 H   0  0  0  0  0  0  0  0  0  0  0  0
   -7.7303   -2.6037    1.1867 H   0  0  0  0  0  0  0  0  0  0  0  0
   -6.5158   -4.5285   -1.0371 H   0  0  0  0  0  0  0  0  0  0  0  0
   -5.0134   -4.6057   -0.1381 H   0  0  0  0  0  0  0  0  0  0  0  0
   -6.1097   -5.4767    0.0000 H   0  0  0  0  0  0  0  0  0  0  0  0
  1  2  1  0  0  0  0
  1 33  1  0  0  0  0
  1 34  1  0  0  0  0
  1 35  1  0  0  0  0
  2  3  1  0  0  0  0
  2 36  1  0  0  0  0
  2 37  1  0  0  0  0
  3 32  1  0  0  0  0
  3  4  2  0  0  0  0
  4  5  1  0  0  0  0
  5  6  2  0  0  0  0
  5 38  1  0  0  0  0
  6  7  1  0  0  0  0
  6 32  1  0  0  0  0
  7  8  2  0  0  0  0
  7  9  1  0  0  0  0
  9 10  1  0  0  0  0
 10 11  1  0  0  0  0
 10 39  1  0  0  0  0
 10 40  1  0  0  0  0
 11 41  1  0  0  0  0
 11 42  1  0  0  0  0
 12 11  1  0  0  0  0
 12 13  1  0  0  0  0
 12 22  1  0  0  0  0
 12 43  1  6  0  0  0
 13 14  2  0  0  0  0
 13 15  1  0  0  0  0
 15 20  2  0  0  0  0
 15 16  1  0  0  0  0
 16 17  2  0  0  0  0
 16 44  1  0  0  0  0
 17 18  1  0  0  0  0
 17 45  1  0  0  0  0
 18 19  2  0  0  0  0
 18 46  1  0  0  0  0
 19 20  1  0  0  0  0
 19 47  1  0  0  0  0
 20 21  1  0  0  0  0
 21 48  1  0  0  0  0
 22 23  2  0  0  0  0
 22 24  1  0  0  0  0
 24 25  1  0  0  0  0
 24 26  1  0  0  0  0
 24 49  1  1  0  0  0
 25 50  1  0  0  0  0
 26 27  2  0  0  0  0
 26 28  1  0  0  0  0
 28 29  1  0  0  0  0
 28 51  1  0  0  0  0
 28 52  1  0  0  0  0
 29 30  1  0  0  0  0
 29 31  2  0  0  0  0
 30 53  1  0  0  0  0
 30 54  1  0  0  0  0
 30 55  1  0  0  0  0
M  END
$$$$
