
 OpenBabel03202621282D

 17 17  0  0  0  0  0  0  0  0999 V2000
    0.2788   -1.7601    0.0000 C   0  0  0  0  0  0  0  0  0  0  0  0
   -0.3090   -0.9511    0.0000 C   0  0  0  0  0  0  0  0  0  0  0  0
   -1.3090   -0.9511    0.0000 C   0  0  0  0  0  0  0  0  0  0  0  0
   -1.6180   -0.0000    0.0000 N   0  0  0  0  0  0  0  0  0  0  0  0
   -2.5691    0.3090    0.0000 C   0  0  0  0  0  0  0  0  0  0  0  0
   -2.7770    1.2872    0.0000 O   0  0  0  0  0  0  0  0  0  0  0  0
   -3.3122   -0.3601    0.0000 C   0  0  0  0  0  0  0  0  0  0  0  0
   -3.1043   -1.3383    0.0000 C   0  0  0  0  0  0  0  0  0  0  0  0
   -3.8475   -2.0074    0.0000 C   0  0  0  0  0  0  0  0  0  0  0  0
   -3.6396   -2.9855    0.0000 C   0  0  0  0  0  0  0  0  0  0  0  0
   -4.3827   -3.6547    0.0000 C   0  0  0  0  0  0  0  0  0  0  0  0
   -5.3338   -3.3457    0.0000 O   0  0  0  0  0  0  0  0  0  0  0  0
   -4.1748   -4.6328    0.0000 N   0  0  0  0  0  0  0  0  0  0  0  0
   -4.9179   -5.3019    0.0000 N   0  3  0  0  0  0  0  0  0  0  0  0
   -5.6611   -5.9711    0.0000 N   0  5  0  0  0  0  0  0  0  0  0  0
   -0.8090    0.5878    0.0000 N   0  0  0  0  0  0  0  0  0  0  0  0
   -0.0000   -0.0000    0.0000 N   0  0  0  0  0  0  0  0  0  0  0  0
  1  2  1  0  0  0  0
  2 17  1  0  0  0  0
  2  3  2  0  0  0  0
  3  4  1  0  0  0  0
  4  5  1  0  0  0  0
  4 16  1  0  0  0  0
  5  6  2  0  0  0  0
  5  7  1  0  0  0  0
  7  8  1  0  0  0  0
  8  9  1  0  0  0  0
  9 10  1  0  0  0  0
 10 11  1  0  0  0  0
 11 12  2  0  0  0  0
 11 13  1  0  0  0  0
 13 14  2  0  0  0  0
 14 15  2  0  0  0  0
 16 17  2  0  0  0  0
M  CHG  2  14   1  15  -1
M  END
$$$$
