
 OpenBabel03202621292D

  6  5  0  0  0  0  0  0  0  0999 V2000
    3.7899    1.0109   -0.0000 N   0  5  0  0  0  0  0  0  0  0  0  0
    2.6517    1.0667    0.0000 N   0  3  0  0  0  0  0  0  0  0  0  0
    1.4153    1.1153    0.0000 N   0  0  0  0  0  0  0  0  0  0  0  0
    0.8569   -0.1334   -0.0000 C   0  0  0  0  0  0  0  0  0  0  0  0
   -0.3525   -0.3364    0.0000 O   0  0  0  0  0  0  0  0  0  0  0  0
    1.5405   -1.0043   -0.0000 H   0  0  0  0  0  0  0  0  0  0  0  0
  1  2  2  0  0  0  0
  2  3  2  0  0  0  0
  3  4  1  0  0  0  0
  4  5  2  0  0  0  0
  4  6  1  0  0  0  0
M  CHG  2   1  -1   2   1
M  END
$$$$
