
 OpenBabel03202621332D

 34 35  0  0  0  0  0  0  0  0999 V2000
    0.8660    1.5000    0.0000 C   0  0  0  0  0  0  0  0  0  0  0  0
    0.8660    0.5000    0.0000 C   0  0  0  0  0  0  0  0  0  0  0  0
    1.8813   -0.4847   -0.1436 C   0  0  0  0  0  0  0  0  0  0  0  0
    1.6363   -1.8907   -0.1189 C   0  0  0  0  0  0  0  0  0  0  0  0
    2.6933   -2.9086   -0.3757 C   0  0  0  0  0  0  0  0  0  0  0  0
    2.3640   -3.9453   -0.9411 O   0  0  0  0  0  0  0  0  0  0  0  0
    3.9277   -2.6453    0.1785 N   0  0  0  0  0  0  0  0  0  0  0  0
    5.1778   -3.0538   -0.2550 C   0  0  0  0  0  0  0  0  0  0  0  0
    5.5270   -3.9240   -1.6354 S   0  0  0  0  0  0  0  0  0  0  0  0
    6.1008   -2.4689    0.5683 O   0  0  0  0  0  0  0  0  0  0  0  0
    7.4901   -2.3968    0.3004 C   0  0  0  0  0  0  0  0  0  0  0  0
    8.0060   -1.2556   -0.1750 C   0  0  0  0  0  0  0  0  0  0  0  0
    9.4799   -1.1355   -0.3675 C   0  0  0  0  0  0  0  0  0  0  0  0
   10.1858   -2.3770   -0.5004 O   0  0  0  0  0  0  0  0  0  0  0  0
    9.6344   -3.4239    0.1972 C   0  0  0  0  0  0  0  0  0  0  0  0
    8.3773   -3.5015    0.6780 C   0  0  0  0  0  0  0  0  0  0  0  0
    7.8222   -4.3835    1.3823 O   0  5  0  0  0  0  0  0  0  0  0  0
    0.3436   -2.3859    0.0524 C   0  0  0  0  0  0  0  0  0  0  0  0
   -0.7009   -1.5026    0.1979 C   0  0  0  0  0  0  0  0  0  0  0  0
   -0.4338   -0.1238    0.1660 C   0  0  0  0  0  0  0  0  0  0  0  0
   -1.6459    0.7220    0.2906 N   0  3  0  0  0  0  0  0  0  0  0  0
   -1.6495    1.5975    1.1725 O   0  0  0  0  0  0  0  0  0  0  0  0
   -2.5815    0.4887   -0.4898 O   0  5  0  0  0  0  0  0  0  0  0  0
    1.6739    1.6910    0.7447 H   0  0  0  0  0  0  0  0  0  0  0  0
    1.2284    1.6809   -1.0394 H   0  0  0  0  0  0  0  0  0  0  0  0
    0.8660    2.5700    0.0000 H   0  0  0  0  0  0  0  0  0  0  0  0
    2.9071   -0.1498   -0.3200 H   0  0  0  0  0  0  0  0  0  0  0  0
    3.9983   -1.9691    0.9231 H   0  0  0  0  0  0  0  0  0  0  0  0
    7.3736   -0.4078   -0.3828 H   0  0  0  0  0  0  0  0  0  0  0  0
    9.6806   -0.5516   -1.2715 H   0  0  0  0  0  0  0  0  0  0  0  0
    9.9123   -0.5853    0.4772 H   0  0  0  0  0  0  0  0  0  0  0  0
   10.3496   -4.2247    0.3198 H   0  0  0  0  0  0  0  0  0  0  0  0
    0.1528   -3.4587    0.0519 H   0  0  0  0  0  0  0  0  0  0  0  0
   -1.7169   -1.8800    0.3126 H   0  0  0  0  0  0  0  0  0  0  0  0
  1  2  1  0  0  0  0
  1 24  1  0  0  0  0
  1 25  1  0  0  0  0
  1 26  1  0  0  0  0
  2 20  2  0  0  0  0
  2  3  1  0  0  0  0
  3  4  2  0  0  0  0
  3 27  1  0  0  0  0
  4  5  1  0  0  0  0
  4 18  1  0  0  0  0
  5  6  2  0  0  0  0
  5  7  1  0  0  0  0
  7  8  1  0  0  0  0
  7 28  1  0  0  0  0
  8  9  2  0  0  0  0
  8 10  1  0  0  0  0
 10 11  1  0  0  0  0
 11 16  1  0  0  0  0
 11 12  2  0  0  0  0
 12 13  1  0  0  0  0
 12 29  1  0  0  0  0
 13 14  1  0  0  0  0
 13 30  1  0  0  0  0
 13 31  1  0  0  0  0
 14 15  1  0  0  0  0
 15 16  2  0  0  0  0
 15 32  1  0  0  0  0
 16 17  1  0  0  0  0
 18 19  2  0  0  0  0
 18 33  1  0  0  0  0
 19 20  1  0  0  0  0
 19 34  1  0  0  0  0
 20 21  1  0  0  0  0
 21 22  2  0  0  0  0
 21 23  1  0  0  0  0
M  CHG  3  17  -1  21   1  23  -1
M  END
$$$$
