
 OpenBabel03202621302D

 23 24  0  0  1  0  0  0  0  0999 V2000
    1.7321    0.0000    0.0000 C   0  0  0  0  0  0  0  0  0  0  0  0
    0.8660   -0.5000    0.0000 C   0  0  1  0  0  0  0  0  0  0  0  0
    0.7134   -1.8459   -0.7992 C   0  0  0  0  0  0  0  0  0  0  0  0
   -0.4792   -2.5623   -0.4430 O   0  0  0  0  0  0  0  0  0  0  0  0
   -1.6002   -1.8381   -0.3931 C   0  0  0  0  0  0  0  0  0  0  0  0
   -2.9283   -2.2028   -0.3185 C   0  0  0  0  0  0  0  0  0  0  0  0
   -3.5190   -3.8439   -0.3172 S   0  0  0  0  0  0  0  0  0  0  0  0
   -5.2295   -3.7323    0.0544 C   0  0  0  0  0  0  0  0  0  0  0  0
   -5.9667   -4.7088   -0.0144 O   0  0  0  0  0  0  0  0  0  0  0  0
   -3.6315   -0.9799   -0.2888 C   0  0  0  0  0  0  0  0  0  0  0  0
   -2.8186    0.0840   -0.3076 N   0  0  0  0  0  0  0  0  0  0  0  0
   -1.5949   -0.4707   -0.3589 N   0  0  0  0  0  0  0  0  0  0  0  0
   -0.3924    0.3458   -0.3752 C   0  0  0  0  0  0  0  0  0  0  0  0
    2.4230   -0.7830    0.3993 H   0  0  0  0  0  0  0  0  0  0  0  0
    1.9010    0.1180   -1.0978 H   0  0  0  0  0  0  0  0  0  0  0  0
    2.6588    0.5350    0.0000 H   0  0  0  0  0  0  0  0  0  0  0  0
    0.5917   -0.8081    1.0288 H   0  0  0  0  0  0  0  0  0  0  0  0
    1.5494   -2.5249   -0.5844 H   0  0  0  0  0  0  0  0  0  0  0  0
    0.7040   -1.6754   -1.8853 H   0  0  0  0  0  0  0  0  0  0  0  0
   -5.6274   -2.7561    0.3719 H   0  0  0  0  0  0  0  0  0  0  0  0
   -4.6965   -0.7943   -0.2567 H   0  0  0  0  0  0  0  0  0  0  0  0
   -0.5457    1.1641    0.3406 H   0  0  0  0  0  0  0  0  0  0  0  0
   -0.3231    0.7649   -1.3873 H   0  0  0  0  0  0  0  0  0  0  0  0
  1 14  1  0  0  0  0
  1 15  1  0  0  0  0
  1 16  1  0  0  0  0
  2  1  1  0  0  0  0
  2  3  1  0  0  0  0
  2 13  1  0  0  0  0
  2 17  1  6  0  0  0
  3  4  1  0  0  0  0
  3 18  1  0  0  0  0
  3 19  1  0  0  0  0
  4  5  1  0  0  0  0
  5 12  1  0  0  0  0
  5  6  2  0  0  0  0
  6  7  1  0  0  0  0
  6 10  1  0  0  0  0
  7  8  1  0  0  0  0
  8  9  2  0  0  0  0
  8 20  1  0  0  0  0
 10 11  2  0  0  0  0
 10 21  1  0  0  0  0
 11 12  1  0  0  0  0
 12 13  1  0  0  0  0
 13 22  1  0  0  0  0
 13 23  1  0  0  0  0
M  END
$$$$
