
 OpenBabel03202621282D

 25 27  0  0  1  0  0  0  0  0999 V2000
    5.3007    0.0055    0.0000 O   0  0  0  0  0  0  0  0  0  0  0  0
    5.3007   -0.9945    0.0000 C   0  0  0  0  0  0  0  0  0  0  0  0
    6.1667   -1.4945    0.0000 C   0  0  0  0  0  0  0  0  0  0  0  0
    6.1667   -2.4945    0.0000 O   0  0  0  0  0  0  0  0  0  0  0  0
    5.3007   -2.9945    0.0000 C   0  0  0  0  0  0  0  0  0  0  0  0
    4.4347   -2.4945    0.0000 C   0  0  0  0  0  0  0  0  0  0  0  0
    4.4347   -1.4945    0.0000 C   0  0  0  0  0  0  0  0  0  0  0  0
    3.5686   -0.9945    0.0000 O   0  0  0  0  0  0  0  0  0  0  0  0
    2.7026   -1.4945    0.0000 C   0  0  0  0  0  0  0  0  0  0  0  0
    1.8366   -0.9945    0.0000 C   0  0  2  0  0  0  0  0  0  0  0  0
    1.8366    0.0055    0.0000 O   0  0  0  0  0  0  0  0  0  0  0  0
    0.9706   -1.4945    0.0000 C   0  0  0  0  0  0  0  0  0  0  0  0
    0.1045   -0.9945    0.0000 N   0  0  0  0  0  0  0  0  0  0  0  0
   -0.8090   -1.4013    0.0000 C   0  0  0  0  0  0  0  0  0  0  0  0
   -1.4781   -0.6581    0.0000 C   0  0  0  0  0  0  0  0  0  0  0  0
   -2.4727   -0.7626    0.0000 C   0  0  0  0  0  0  0  0  0  0  0  0
   -2.8794   -1.6762    0.0000 O   0  0  0  0  0  0  0  0  0  0  0  0
   -3.8739   -1.7807    0.0000 C   0  0  1  0  0  0  0  0  0  0  0  0
   -4.2807   -2.6943    0.0000 C   0  0  0  0  0  0  0  0  0  0  0  0
   -5.2752   -2.7988    0.0000 C   0  0  0  0  0  0  0  0  0  0  0  0
   -5.8630   -1.9898    0.0000 C   0  0  0  0  0  0  0  0  0  0  0  0
   -5.4562   -1.0762    0.0000 C   0  0  0  0  0  0  0  0  0  0  0  0
   -4.4617   -0.9717    0.0000 O   0  0  0  0  0  0  0  0  0  0  0  0
   -0.9781    0.2079    0.0000 N   0  0  0  0  0  0  0  0  0  0  0  0
    0.0000    0.0000    0.0000 N   0  0  0  0  0  0  0  0  0  0  0  0
  1  2  1  0  0  0  0
  2  7  1  0  0  0  0
  2  3  2  0  0  0  0
  3  4  1  0  0  0  0
  4  5  1  0  0  0  0
  5  6  1  0  0  0  0
  6  7  2  0  0  0  0
  7  8  1  0  0  0  0
  8  9  1  0  0  0  0
  9 10  1  0  0  0  0
 10 11  1  1  0  0  0
 10 12  1  0  0  0  0
 12 13  1  0  0  0  0
 13 25  1  0  0  0  0
 13 14  1  0  0  0  0
 14 15  2  0  0  0  0
 15 16  1  0  0  0  0
 15 24  1  0  0  0  0
 16 17  1  0  0  0  0
 18 17  1  1  0  0  0
 18 19  1  0  0  0  0
 18 23  1  0  0  0  0
 19 20  1  0  0  0  0
 20 21  1  0  0  0  0
 21 22  1  0  0  0  0
 22 23  1  0  0  0  0
 24 25  2  0  0  0  0
M  END
$$$$
