
 OpenBabel03202621332D

 18 17  0  0  1  0  0  0  0  0999 V2000
    1.7321   -1.0000    0.0000 C   0  0  0  0  0  0  0  0  0  0  0  0
    1.7321    0.0000    0.0000 C   0  0  2  0  0  0  0  0  0  0  0  0
    2.9327    0.5896    1.5741 S   0  0  0  0  0  0  0  0  0  0  0  0
    3.8890    1.7714    0.6589 C   0  0  0  0  0  0  0  0  0  0  0  0
    5.0946    1.8914    0.8382 O   0  0  0  0  0  0  0  0  0  0  0  0
    0.8660    0.5000    0.0000 C   0  0  1  0  0  0  0  0  0  0  0  0
    0.8660    1.5000    0.0000 C   0  0  0  0  0  0  0  0  0  0  0  0
   -0.1283    0.0470   -1.0497 O   0  0  0  0  0  0  0  0  0  0  0  0
    1.5528   -1.2626   -1.0929 H   0  0  0  0  0  0  0  0  0  0  0  0
    2.8257   -1.2569    0.0955 H   0  0  0  0  0  0  0  0  0  0  0  0
    1.7321   -2.0700    0.0000 H   0  0  0  0  0  0  0  0  0  0  0  0
    2.4423    0.3400   -0.8073 H   0  0  0  0  0  0  0  0  0  0  0  0
    3.3608    2.3911   -0.0812 H   0  0  0  0  0  0  0  0  0  0  0  0
    0.2759    0.1767    0.9064 H   0  0  0  0  0  0  0  0  0  0  0  0
    0.9942    1.7681   -1.0963 H   0  0  0  0  0  0  0  0  0  0  0  0
   -0.2014    1.7587    0.2699 H   0  0  0  0  0  0  0  0  0  0  0  0
    0.8660    2.5700    0.0000 H   0  0  0  0  0  0  0  0  0  0  0  0
   -1.0227    0.0893   -0.6601 H   0  0  0  0  0  0  0  0  0  0  0  0
  1  9  1  0  0  0  0
  1 10  1  0  0  0  0
  1 11  1  0  0  0  0
  2  1  1  0  0  0  0
  2  3  1  0  0  0  0
  2  6  1  0  0  0  0
  2 12  1  6  0  0  0
  3  4  1  0  0  0  0
  4  5  2  0  0  0  0
  4 13  1  0  0  0  0
  6  7  1  0  0  0  0
  6  8  1  0  0  0  0
  6 14  1  1  0  0  0
  7 15  1  0  0  0  0
  7 16  1  0  0  0  0
  7 17  1  0  0  0  0
  8 18  1  0  0  0  0
M  END
$$$$
