
 OpenBabel03202621372D

 18 17  0  0  1  0  0  0  0  0999 V2000
    3.4641   -1.0000    0.0000 C   0  0  0  0  0  0  0  0  0  0  0  0
    3.4641    0.0000    0.0000 S   0  0  0  0  0  0  0  0  0  0  0  0
    2.7022    0.5182   -1.4661 C   0  0  0  0  0  0  0  0  0  0  0  0
    3.0957    1.4001   -2.1948 O   0  0  0  0  0  0  0  0  0  0  0  0
    1.3317   -0.0630   -1.3580 C   0  0  0  0  0  0  0  0  0  0  0  0
    0.8660    0.5000    0.0000 C   0  0  2  0  0  0  0  0  0  0  0  0
    0.8660    1.5000    0.0000 C   0  0  0  0  0  0  0  0  0  0  0  0
   -0.4856   -0.1515    0.0104 O   0  0  0  0  0  0  0  0  0  0  0  0
    2.9776   -1.1869    0.9769 H   0  0  0  0  0  0  0  0  0  0  0  0
    4.5477   -1.1705    0.1547 H   0  0  0  0  0  0  0  0  0  0  0  0
    3.4641   -2.0700    0.0000 H   0  0  0  0  0  0  0  0  0  0  0  0
    1.3491   -1.1587   -1.3680 H   0  0  0  0  0  0  0  0  0  0  0  0
    0.7000    0.2160   -2.2410 H   0  0  0  0  0  0  0  0  0  0  0  0
    1.2112   -0.0664    0.8740 H   0  0  0  0  0  0  0  0  0  0  0  0
    1.5964    1.7163    0.8199 H   0  0  0  0  0  0  0  0  0  0  0  0
   -0.1166    1.7655    0.4599 H   0  0  0  0  0  0  0  0  0  0  0  0
    0.8660    2.5700    0.0000 H   0  0  0  0  0  0  0  0  0  0  0  0
   -1.1913    0.4750   -0.2265 H   0  0  0  0  0  0  0  0  0  0  0  0
  1  2  1  0  0  0  0
  1  9  1  0  0  0  0
  1 10  1  0  0  0  0
  1 11  1  0  0  0  0
  2  3  1  0  0  0  0
  3  4  2  0  0  0  0
  3  5  1  0  0  0  0
  5  6  1  0  0  0  0
  5 12  1  0  0  0  0
  5 13  1  0  0  0  0
  6  7  1  0  0  0  0
  6  8  1  0  0  0  0
  6 14  1  6  0  0  0
  7 15  1  0  0  0  0
  7 16  1  0  0  0  0
  7 17  1  0  0  0  0
  8 18  1  0  0  0  0
M  END
$$$$
