
 OpenBabel03202621382D

 57 58  0  0  1  0  0  0  0  0999 V2000
    1.8615   -1.0507   -1.1190 C   0  0  0  0  0  0  0  0  0  0  0  0
    1.0000   -1.0000    0.0000 C   0  0  0  0  0  0  0  0  0  0  0  0
    0.0000   -1.0000    0.0000 S   0  0  0  0  0  0  0  0  0  0  0  0
    0.0000   -2.0000    0.0000 O   0  0  0  0  0  0  0  0  0  0  0  0
   -1.0000   -1.0000    0.0000 O   0  0  0  0  0  0  0  0  0  0  0  0
    0.0000    0.0000    0.0000 N   0  0  0  0  0  0  0  0  0  0  0  0
   -1.0982    1.0055   -0.6195 C   0  0  0  0  0  0  0  0  0  0  0  0
   -1.1086    2.3222   -0.4929 N   0  0  0  0  0  0  0  0  0  0  0  0
   -2.4611    2.6662   -0.5702 C   0  0  0  0  0  0  0  0  0  0  0  0
   -3.0023    3.9992   -0.2244 C   0  0  0  0  0  0  0  0  0  0  0  0
   -3.1896    1.5651   -0.9314 C   0  0  0  0  0  0  0  0  0  0  0  0
   -2.3260    0.5428   -1.1071 O   0  0  0  0  0  0  0  0  0  0  0  0
    1.0481    1.1283    0.9492 C   0  0  1  0  0  0  0  0  0  0  0  0
    0.6443    2.5481    1.4322 C   0  0  0  0  0  0  0  0  0  0  0  0
   -0.4676    2.7624    1.9512 O   0  0  0  0  0  0  0  0  0  0  0  0
    1.6851    3.6380    1.5245 C   0  0  0  0  0  0  0  0  0  0  0  0
    1.2874    5.0423    1.1410 C   0  0  0  0  0  0  0  0  0  0  0  0
    0.2160    5.2666    0.1221 C   0  0  0  0  0  0  0  0  0  0  0  0
    1.8716    6.0121    1.6389 O   0  0  0  0  0  0  0  0  0  0  0  0
    2.6094    0.8518    1.1544 C   0  0  0  0  0  0  0  0  0  0  0  0
    2.9352    0.4459    2.2906 O   0  0  0  0  0  0  0  0  0  0  0  0
    3.7967    1.1484    0.1896 C   0  0  2  0  0  0  0  0  0  0  0  0
    3.4993    2.1558   -0.9689 C   0  0  0  0  0  0  0  0  0  0  0  0
    4.6499    3.1757   -1.0983 C   0  0  0  0  0  0  0  0  0  0  0  0
    4.1908    4.4373   -0.6143 O   0  0  0  0  0  0  0  0  0  0  0  0
    4.7362    0.0500   -0.4093 C   0  0  0  0  0  0  0  0  0  0  0  0
    5.0834    0.2309   -1.5934 O   0  0  0  0  0  0  0  0  0  0  0  0
    5.2177   -1.2574    0.2445 C   0  0  0  0  0  0  0  0  0  0  0  0
    4.3281   -2.0105    1.0207 C   0  0  0  0  0  0  0  0  0  0  0  0
    4.4430   -3.3951    1.1534 C   0  0  0  0  0  0  0  0  0  0  0  0
    5.5131   -4.0427    0.5735 C   0  0  0  0  0  0  0  0  0  0  0  0
    6.5035   -3.2811   -0.0460 C   0  0  0  0  0  0  0  0  0  0  0  0
    6.4363   -1.8725   -0.2107 C   0  0  0  0  0  0  0  0  0  0  0  0
    7.4259   -1.2504   -0.7264 O   0  5  0  0  0  0  0  0  0  0  0  0
    1.4799   -0.9622   -2.1400 H   0  0  0  0  0  0  0  0  0  0  0  0
    2.8962   -1.3458   -1.0663 H   0  0  0  0  0  0  0  0  0  0  0  0
    1.6638   -1.2880    0.8408 H   0  0  0  0  0  0  0  0  0  0  0  0
   -2.6246    4.3416    0.7417 H   0  0  0  0  0  0  0  0  0  0  0  0
   -4.0954    3.9694   -0.1326 H   0  0  0  0  0  0  0  0  0  0  0  0
   -2.7532    4.7303   -0.9976 H   0  0  0  0  0  0  0  0  0  0  0  0
   -4.2410    1.3460   -1.0524 H   0  0  0  0  0  0  0  0  0  0  0  0
    0.7225    0.6678    1.9182 H   0  0  0  0  0  0  0  0  0  0  0  0
    2.5703    3.4145    0.9537 H   0  0  0  0  0  0  0  0  0  0  0  0
    2.0178    3.6660    2.5741 H   0  0  0  0  0  0  0  0  0  0  0  0
    0.3488    6.2443   -0.3537 H   0  0  0  0  0  0  0  0  0  0  0  0
    0.2506    4.5093   -0.6602 H   0  0  0  0  0  0  0  0  0  0  0  0
   -0.7420    5.2696    0.6394 H   0  0  0  0  0  0  0  0  0  0  0  0
    4.4795    1.6849    0.8722 H   0  0  0  0  0  0  0  0  0  0  0  0
    3.4097    1.6312   -1.9275 H   0  0  0  0  0  0  0  0  0  0  0  0
    2.5363    2.6570   -0.8674 H   0  0  0  0  0  0  0  0  0  0  0  0
    5.5440    2.9007   -0.5256 H   0  0  0  0  0  0  0  0  0  0  0  0
    4.9487    3.3049   -2.1437 H   0  0  0  0  0  0  0  0  0  0  0  0
    4.9552    5.0393   -0.6527 H   0  0  0  0  0  0  0  0  0  0  0  0
    3.4816   -1.5634    1.4964 H   0  0  0  0  0  0  0  0  0  0  0  0
    3.6754   -3.9585    1.6731 H   0  0  0  0  0  0  0  0  0  0  0  0
    5.6021   -5.1227    0.6155 H   0  0  0  0  0  0  0  0  0  0  0  0
    7.3758   -3.8029   -0.4486 H   0  0  0  0  0  0  0  0  0  0  0  0
  1  2  2  0  0  0  0
  1 35  1  0  0  0  0
  1 36  1  0  0  0  0
  2  3  1  0  0  0  0
  2 37  1  0  0  0  0
  3  4  2  0  0  0  0
  3  5  2  0  0  0  0
  3  6  1  0  0  0  0
  6  7  1  0  0  0  0
  6 13  1  0  0  0  0
  7 12  1  0  0  0  0
  7  8  2  0  0  0  0
  8  9  1  0  0  0  0
  9 10  1  0  0  0  0
  9 11  2  0  0  0  0
 10 38  1  0  0  0  0
 10 39  1  0  0  0  0
 10 40  1  0  0  0  0
 11 12  1  0  0  0  0
 11 41  1  0  0  0  0
 13 14  1  0  0  0  0
 13 20  1  0  0  0  0
 13 42  1  6  0  0  0
 14 15  2  0  0  0  0
 14 16  1  0  0  0  0
 16 17  1  0  0  0  0
 16 43  1  0  0  0  0
 16 44  1  0  0  0  0
 17 18  1  0  0  0  0
 17 19  2  0  0  0  0
 18 45  1  0  0  0  0
 18 46  1  0  0  0  0
 18 47  1  0  0  0  0
 20 21  2  0  0  0  0
 20 22  1  0  0  0  0
 22 23  1  0  0  0  0
 22 26  1  0  0  0  0
 22 48  1  1  0  0  0
 23 24  1  0  0  0  0
 23 49  1  0  0  0  0
 23 50  1  0  0  0  0
 24 25  1  0  0  0  0
 24 51  1  0  0  0  0
 24 52  1  0  0  0  0
 25 53  1  0  0  0  0
 26 27  2  0  0  0  0
 26 28  1  0  0  0  0
 28 33  2  0  0  0  0
 28 29  1  0  0  0  0
 29 30  2  0  0  0  0
 29 54  1  0  0  0  0
 30 31  1  0  0  0  0
 30 55  1  0  0  0  0
 31 32  2  0  0  0  0
 31 56  1  0  0  0  0
 32 33  1  0  0  0  0
 32 57  1  0  0  0  0
 33 34  1  0  0  0  0
M  CHG  1  34  -1
M  END
$$$$
