
 OpenBabel03202621342D

 25 26  0  0  0  0  0  0  0  0999 V2000
   -0.0933   -1.7796    0.0000 C   0  0  0  0  0  0  0  0  0  0  0  0
   -0.5000   -0.8660    0.0000 C   0  0  0  0  0  0  0  0  0  0  0  0
   -1.7775   -0.5126   -0.4074 C   0  0  0  0  0  0  0  0  0  0  0  0
   -2.0304    0.7283    0.1368 N   0  0  0  0  0  0  0  0  0  0  0  0
   -3.2555    1.3866    0.3719 C   0  0  0  0  0  0  0  0  0  0  0  0
   -3.2128    2.5923    0.6119 O   0  0  0  0  0  0  0  0  0  0  0  0
   -4.5870    0.6917    0.3275 C   0  0  0  0  0  0  0  0  0  0  0  0
   -4.6847   -0.6675    0.6838 C   0  0  0  0  0  0  0  0  0  0  0  0
   -5.8931   -1.3542    0.5652 C   0  0  0  0  0  0  0  0  0  0  0  0
   -7.0277   -0.6796    0.1350 C   0  0  0  0  0  0  0  0  0  0  0  0
   -6.9582    0.6846   -0.1530 C   0  0  0  0  0  0  0  0  0  0  0  0
   -5.7454    1.3877   -0.0743 C   0  0  0  0  0  0  0  0  0  0  0  0
   -5.7897    2.7795   -0.1970 N   0  0  0  0  0  0  0  0  0  0  0  0
   -0.8558    1.2607    0.5379 N   0  0  0  0  0  0  0  0  0  0  0  0
    0.0533    0.2940    0.5222 N   0  0  0  0  0  0  0  0  0  0  0  0
    0.0125   -1.9350    1.1003 H   0  0  0  0  0  0  0  0  0  0  0  0
    0.8975   -1.5457   -0.4565 H   0  0  0  0  0  0  0  0  0  0  0  0
    0.3419   -2.7571    0.0000 H   0  0  0  0  0  0  0  0  0  0  0  0
   -2.5499   -1.0835   -0.9032 H   0  0  0  0  0  0  0  0  0  0  0  0
   -3.8344   -1.2153    1.0819 H   0  0  0  0  0  0  0  0  0  0  0  0
   -5.9521   -2.4083    0.8270 H   0  0  0  0  0  0  0  0  0  0  0  0
   -7.9784   -1.2027    0.0609 H   0  0  0  0  0  0  0  0  0  0  0  0
   -7.8738    1.2103   -0.4155 H   0  0  0  0  0  0  0  0  0  0  0  0
   -4.8816    3.2510   -0.1892 H   0  0  0  0  0  0  0  0  0  0  0  0
   -6.4736    3.1736   -0.8301 H   0  0  0  0  0  0  0  0  0  0  0  0
  1  2  1  0  0  0  0
  1 16  1  0  0  0  0
  1 17  1  0  0  0  0
  1 18  1  0  0  0  0
  2 15  1  0  0  0  0
  2  3  2  0  0  0  0
  3  4  1  0  0  0  0
  3 19  1  0  0  0  0
  4  5  1  0  0  0  0
  4 14  1  0  0  0  0
  5  6  2  0  0  0  0
  5  7  1  0  0  0  0
  7 12  2  0  0  0  0
  7  8  1  0  0  0  0
  8  9  2  0  0  0  0
  8 20  1  0  0  0  0
  9 10  1  0  0  0  0
  9 21  1  0  0  0  0
 10 11  2  0  0  0  0
 10 22  1  0  0  0  0
 11 12  1  0  0  0  0
 11 23  1  0  0  0  0
 12 13  1  0  0  0  0
 13 24  1  0  0  0  0
 13 25  1  0  0  0  0
 14 15  2  0  0  0  0
M  END
$$$$
