
 OpenBabel03202621342D

 15 14  0  0  0  0  0  0  0  0999 V2000
    3.4641   -1.0000    0.0000 C   0  0  0  0  0  0  0  0  0  0  0  0
    3.4641    0.0000    0.0000 S   0  0  0  0  0  0  0  0  0  0  0  0
    2.0332    0.9766    0.0475 C   0  0  0  0  0  0  0  0  0  0  0  0
    2.1662    2.1889    0.2103 O   0  0  0  0  0  0  0  0  0  0  0  0
    0.7025    0.3035   -0.1127 C   0  0  0  0  0  0  0  0  0  0  0  0
   -0.5256    1.1859   -0.1211 C   0  0  0  0  0  0  0  0  0  0  0  0
   -0.3760    2.5329   -0.1737 N   0  0  0  0  0  0  0  0  0  0  0  0
   -1.6560    0.6997   -0.1163 O   0  0  0  0  0  0  0  0  0  0  0  0
    3.0473   -1.1890    1.0099 H   0  0  0  0  0  0  0  0  0  0  0  0
    4.5561   -1.1708    0.0535 H   0  0  0  0  0  0  0  0  0  0  0  0
    3.4641   -2.0700    0.0000 H   0  0  0  0  0  0  0  0  0  0  0  0
    0.7024   -0.2520   -1.0573 H   0  0  0  0  0  0  0  0  0  0  0  0
    0.5797   -0.3965    0.7218 H   0  0  0  0  0  0  0  0  0  0  0  0
    0.5291    2.9767   -0.0153 H   0  0  0  0  0  0  0  0  0  0  0  0
   -1.2019    3.1143   -0.1154 H   0  0  0  0  0  0  0  0  0  0  0  0
  1  2  1  0  0  0  0
  1  9  1  0  0  0  0
  1 10  1  0  0  0  0
  1 11  1  0  0  0  0
  2  3  1  0  0  0  0
  3  4  2  0  0  0  0
  3  5  1  0  0  0  0
  5  6  1  0  0  0  0
  5 12  1  0  0  0  0
  5 13  1  0  0  0  0
  6  7  1  0  0  0  0
  6  8  2  0  0  0  0
  7 14  1  0  0  0  0
  7 15  1  0  0  0  0
M  END
$$$$
