
 OpenBabel03202621392D

 29 29  0  0  1  0  0  0  0  0999 V2000
    2.5981   -1.5000    0.0000 C   0  0  0  0  0  0  0  0  0  0  0  0
    2.5981   -0.5000    0.0000 C   0  0  0  0  0  0  0  0  0  0  0  0
    1.7427   -0.5751    1.4535 C   0  0  2  0  0  0  0  0  0  0  0  0
    1.5481    0.7586    1.9844 N   0  0  0  0  0  0  0  0  0  0  0  0
    0.9951    1.7156    1.1941 C   0  0  0  0  0  0  0  0  0  0  0  0
    1.2107    2.9145    1.3037 O   0  0  0  0  0  0  0  0  0  0  0  0
    0.0000    1.0000    0.0000 S   0  0  0  0  0  0  0  0  0  0  0  0
   -0.8660    1.5000    0.0000 C   0  0  0  0  0  0  0  0  0  0  0  0
    0.4854   -1.6594    1.4691 C   0  0  0  0  0  0  0  0  0  0  0  0
    0.6275   -2.9639    1.9243 C   0  0  0  0  0  0  0  0  0  0  0  0
   -0.3657   -3.9524    1.6710 C   0  0  0  0  0  0  0  0  0  0  0  0
   -1.6178   -3.6388    1.1302 C   0  0  0  0  0  0  0  0  0  0  0  0
   -1.8191   -2.3617    0.6659 C   0  0  0  0  0  0  0  0  0  0  0  0
   -0.6736   -1.5641    0.6605 C   0  0  0  0  0  0  0  0  0  0  0  0
    3.5513   -1.6976    0.5665 H   0  0  0  0  0  0  0  0  0  0  0  0
    2.8966   -1.6673   -1.0654 H   0  0  0  0  0  0  0  0  0  0  0  0
    2.5981   -2.5700    0.0000 H   0  0  0  0  0  0  0  0  0  0  0  0
    3.4836    0.1366    0.1642 H   0  0  0  0  0  0  0  0  0  0  0  0
    2.0615    0.0235   -0.7917 H   0  0  0  0  0  0  0  0  0  0  0  0
    2.4154   -0.9923    2.2308 H   0  0  0  0  0  0  0  0  0  0  0  0
    2.3137    1.1644    2.5158 H   0  0  0  0  0  0  0  0  0  0  0  0
   -0.5920    2.3452   -0.6668 H   0  0  0  0  0  0  0  0  0  0  0  0
   -1.4794    0.8167   -0.6170 H   0  0  0  0  0  0  0  0  0  0  0  0
   -1.7926    2.0350    0.0000 H   0  0  0  0  0  0  0  0  0  0  0  0
    1.5920   -3.2972    2.3308 H   0  0  0  0  0  0  0  0  0  0  0  0
   -0.1389   -5.0067    1.8393 H   0  0  0  0  0  0  0  0  0  0  0  0
   -2.3713   -4.3925    0.9236 H   0  0  0  0  0  0  0  0  0  0  0  0
   -2.6850   -2.0727    0.1010 H   0  0  0  0  0  0  0  0  0  0  0  0
   -0.6114   -1.1081   -0.3124 H   0  0  0  0  0  0  0  0  0  0  0  0
  1  2  1  0  0  0  0
  1 15  1  0  0  0  0
  1 16  1  0  0  0  0
  1 17  1  0  0  0  0
  2 18  1  0  0  0  0
  2 19  1  0  0  0  0
  3  2  1  0  0  0  0
  3  4  1  0  0  0  0
  3  9  1  0  0  0  0
  3 20  1  6  0  0  0
  4  5  1  0  0  0  0
  4 21  1  0  0  0  0
  5  6  2  0  0  0  0
  5  7  1  0  0  0  0
  7  8  1  0  0  0  0
  8 22  1  0  0  0  0
  8 23  1  0  0  0  0
  8 24  1  0  0  0  0
  9 14  2  0  0  0  0
  9 10  1  0  0  0  0
 10 11  2  0  0  0  0
 10 25  1  0  0  0  0
 11 12  1  0  0  0  0
 11 26  1  0  0  0  0
 12 13  2  0  0  0  0
 12 27  1  0  0  0  0
 13 14  1  0  0  0  0
 13 28  1  0  0  0  0
 14 29  1  0  0  0  0
M  END
$$$$
