
 OpenBabel03202621362D

 17 17  0  0  0  0  0  0  0  0999 V2000
    1.5527    0.0200    0.9269 N   0  0  0  0  0  0  0  0  0  0  0  0
    0.5132   -0.6920    0.1467 C   0  0  0  0  0  0  0  0  0  0  0  0
    0.8466   -2.1134   -0.3099 C   0  0  0  0  0  0  0  0  0  0  0  0
    2.2713   -2.3088   -0.2422 O   0  0  0  0  0  0  0  0  0  0  0  0
    2.6924   -3.5849   -0.1328 C   0  0  0  0  0  0  0  0  0  0  0  0
    3.8598   -3.9039    0.0199 O   0  0  0  0  0  0  0  0  0  0  0  0
   -0.9171   -0.4166    0.5634 C   0  0  0  0  0  0  0  0  0  0  0  0
   -0.3995    0.1582   -0.7158 C   0  0  0  0  0  0  0  0  0  0  0  0
    2.3254   -0.6254    1.1186 H   0  0  0  0  0  0  0  0  0  0  0  0
    1.9809    0.7463    0.3517 H   0  0  0  0  0  0  0  0  0  0  0  0
    0.3340   -2.8310    0.3427 H   0  0  0  0  0  0  0  0  0  0  0  0
    0.5288   -2.2747   -1.3465 H   0  0  0  0  0  0  0  0  0  0  0  0
    1.8720   -4.3181   -0.2044 H   0  0  0  0  0  0  0  0  0  0  0  0
   -1.6474   -1.2147    0.5006 H   0  0  0  0  0  0  0  0  0  0  0  0
   -1.0842    0.2597    1.3955 H   0  0  0  0  0  0  0  0  0  0  0  0
   -0.2240    1.2283   -0.7538 H   0  0  0  0  0  0  0  0  0  0  0  0
   -0.8026   -0.2445   -1.6378 H   0  0  0  0  0  0  0  0  0  0  0  0
  1  2  1  0  0  0  0
  1  9  1  0  0  0  0
  1 10  1  0  0  0  0
  2  8  1  0  0  0  0
  2  3  1  0  0  0  0
  2  7  1  0  0  0  0
  3  4  1  0  0  0  0
  3 11  1  0  0  0  0
  3 12  1  0  0  0  0
  4  5  1  0  0  0  0
  5  6  2  0  0  0  0
  5 13  1  0  0  0  0
  7  8  1  0  0  0  0
  7 14  1  0  0  0  0
  7 15  1  0  0  0  0
  8 16  1  0  0  0  0
  8 17  1  0  0  0  0
M  END
$$$$
