
 OpenBabel03202621332D

 51 52  0  0  1  0  0  0  0  0999 V2000
    1.7683    6.5677    0.0000 C   0  0  0  0  0  0  0  0  0  0  0  0
    0.9293    6.0833    0.0000 C   0  0  0  0  0  0  0  0  0  0  0  0
   -0.1573    6.3773   -0.4934 O   0  0  0  0  0  0  0  0  0  0  0  0
    1.1396    4.7416    0.6004 C   0  0  0  0  0  0  0  0  0  0  0  0
    0.2274    4.2539    1.6650 C   0  0  0  0  0  0  0  0  0  0  0  0
   -0.1008    4.9510    2.6214 O   0  0  0  0  0  0  0  0  0  0  0  0
    0.0343    2.7559    1.5979 C   0  0  2  0  0  0  0  0  0  0  0  0
   -0.5364    2.1766    2.7519 O   0  0  0  0  0  0  0  0  0  0  0  0
   -0.6120    2.3754    0.2494 C   0  0  0  0  0  0  0  0  0  0  0  0
   -0.6953    3.1209   -0.7202 O   0  0  0  0  0  0  0  0  0  0  0  0
   -1.1579    0.9960    0.1632 C   0  0  2  0  0  0  0  0  0  0  0  0
   -2.5876    1.1286   -0.4810 C   0  0  0  0  0  0  0  0  0  0  0  0
   -3.5704    2.2506   -0.0820 C   0  0  0  0  0  0  0  0  0  0  0  0
   -3.0232    3.2908    0.7006 O   0  0  0  0  0  0  0  0  0  0  0  0
   -0.1436   -0.1023   -0.5052 C   0  0  3  0  0  0  0  0  0  0  0  0
   -0.1587    0.0947   -1.9284 O   0  0  0  0  0  0  0  0  0  0  0  0
    1.3937   -0.1161   -0.1501 C   0  0  0  0  0  0  0  0  0  0  0  0
    2.0986   -1.3113    0.0771 C   0  0  0  0  0  0  0  0  0  0  0  0
    3.4791   -1.4097    0.3302 C   0  0  0  0  0  0  0  0  0  0  0  0
    4.2600   -0.2787    0.3906 C   0  0  0  0  0  0  0  0  0  0  0  0
    3.6590    0.9253    0.0738 C   0  0  0  0  0  0  0  0  0  0  0  0
    2.2844    0.9725   -0.2635 C   0  0  0  0  0  0  0  0  0  0  0  0
    1.8710    2.1251   -0.8536 O   0  0  0  0  0  0  0  0  0  0  0  0
   -0.9631   -1.4233   -0.1554 C   0  0  2  0  0  0  0  0  0  0  0  0
   -2.1483   -1.5292   -0.9518 O   0  0  0  0  0  0  0  0  0  0  0  0
   -2.7264   -2.7056   -0.5935 C   0  0  0  0  0  0  0  0  0  0  0  0
   -3.8884   -2.9969   -0.7926 O   0  0  0  0  0  0  0  0  0  0  0  0
   -1.8350   -3.4982    0.0618 O   0  0  0  0  0  0  0  0  0  0  0  0
   -0.5737   -2.8767   -0.1367 C   0  0  1  0  0  0  0  0  0  0  0  0
    0.1251   -3.5515   -1.6205 Cl  0  0  0  0  0  0  0  0  0  0  0  0
    1.9754    6.4837   -1.0954 H   0  0  0  0  0  0  0  0  0  0  0  0
    1.3698    7.5759    0.2707 H   0  0  0  0  0  0  0  0  0  0  0  0
    2.6949    7.1027    0.0000 H   0  0  0  0  0  0  0  0  0  0  0  0
    2.1432    4.6544    1.0565 H   0  0  0  0  0  0  0  0  0  0  0  0
    1.1903    4.0919   -0.2604 H   0  0  0  0  0  0  0  0  0  0  0  0
    1.0470    2.3462    1.5751 H   0  0  0  0  0  0  0  0  0  0  0  0
    0.0730    2.3538    3.4914 H   0  0  0  0  0  0  0  0  0  0  0  0
   -1.3342    0.6979    1.1978 H   0  0  0  0  0  0  0  0  0  0  0  0
   -3.1558    0.2293   -0.2330 H   0  0  0  0  0  0  0  0  0  0  0  0
   -2.4984    1.1373   -1.5740 H   0  0  0  0  0  0  0  0  0  0  0  0
   -4.3950    1.8195    0.4987 H   0  0  0  0  0  0  0  0  0  0  0  0
   -4.0293    2.6826   -0.9793 H   0  0  0  0  0  0  0  0  0  0  0  0
   -2.7660    4.0033    0.0812 H   0  0  0  0  0  0  0  0  0  0  0  0
    0.1580    1.0153   -2.0865 H   0  0  0  0  0  0  0  0  0  0  0  0
    1.6518   -2.2757   -0.0273 H   0  0  0  0  0  0  0  0  0  0  0  0
    3.9343   -2.3936    0.4357 H   0  0  0  0  0  0  0  0  0  0  0  0
    5.3240   -0.3497    0.5899 H   0  0  0  0  0  0  0  0  0  0  0  0
    4.2903    1.8138    0.0365 H   0  0  0  0  0  0  0  0  0  0  0  0
    2.6552    2.6176   -1.1604 H   0  0  0  0  0  0  0  0  0  0  0  0
   -1.3048   -1.2576    0.8788 H   0  0  0  0  0  0  0  0  0  0  0  0
    0.0449   -3.1205    0.7346 H   0  0  0  0  0  0  0  0  0  0  0  0
  1  2  1  0  0  0  0
  1 31  1  0  0  0  0
  1 32  1  0  0  0  0
  1 33  1  0  0  0  0
  2  3  2  0  0  0  0
  2  4  1  0  0  0  0
  4  5  1  0  0  0  0
  4 34  1  0  0  0  0
  4 35  1  0  0  0  0
  5  6  2  0  0  0  0
  5  7  1  0  0  0  0
  7  8  1  0  0  0  0
  7  9  1  0  0  0  0
  7 36  1  1  0  0  0
  8 37  1  0  0  0  0
  9 10  2  0  0  0  0
  9 11  1  0  0  0  0
 11 12  1  0  0  0  0
 11 15  1  0  0  0  0
 11 38  1  6  0  0  0
 12 13  1  0  0  0  0
 12 39  1  0  0  0  0
 12 40  1  0  0  0  0
 13 14  1  0  0  0  0
 13 41  1  0  0  0  0
 13 42  1  0  0  0  0
 14 43  1  0  0  0  0
 15 16  1  0  0  0  0
 15 17  1  0  0  0  0
 16 44  1  0  0  0  0
 17 22  2  0  0  0  0
 17 18  1  0  0  0  0
 18 19  2  0  0  0  0
 18 45  1  0  0  0  0
 19 20  1  0  0  0  0
 19 46  1  0  0  0  0
 20 21  2  0  0  0  0
 20 47  1  0  0  0  0
 21 22  1  0  0  0  0
 21 48  1  0  0  0  0
 22 23  1  0  0  0  0
 23 49  1  0  0  0  0
 24 15  1  0  0  0  0
 24 25  1  0  0  0  0
 24 29  1  0  0  0  0
 24 50  1  6  0  0  0
 25 26  1  0  0  0  0
 26 27  2  0  0  0  0
 26 28  1  0  0  0  0
 28 29  1  0  0  0  0
 29 30  1  0  0  0  0
 29 51  1  1  0  0  0
M  END
$$$$
