
 OpenBabel03202621342D

 30 30  0  0  0  0  0  0  0  0999 V2000
   -0.8660   -1.5000    0.0000 C   0  0  0  0  0  0  0  0  0  0  0  0
   -0.8660   -0.5000    0.0000 C   0  0  0  0  0  0  0  0  0  0  0  0
   -1.2221    0.0005    1.2693 C   0  0  0  0  0  0  0  0  0  0  0  0
   -1.5087    1.3310    1.2232 C   0  0  0  0  0  0  0  0  0  0  0  0
   -2.5981    1.5000    0.0000 C   0  0  0  0  0  0  0  0  0  0  0  0
   -3.5981    1.5000    0.0000 C   0  0  0  0  0  0  0  0  0  0  0  0
   -3.0981    0.6340    0.0000 C   0  0  0  0  0  0  0  0  0  0  0  0
   -2.5981    2.5000    0.0000 C   0  0  0  0  0  0  0  0  0  0  0  0
   -0.3399    2.0821    1.0123 C   0  0  0  0  0  0  0  0  0  0  0  0
    0.4651    1.6391   -0.0176 C   0  0  0  0  0  0  0  0  0  0  0  0
    0.1881    0.3605   -0.5557 C   0  0  0  0  0  0  0  0  0  0  0  0
    1.5344   -0.3103   -1.6033 S   0  0  0  0  0  0  0  0  0  0  0  0
    2.9261   -0.1487   -0.5007 C   0  0  0  0  0  0  0  0  0  0  0  0
    3.8508   -0.9435   -0.5051 O   0  0  0  0  0  0  0  0  0  0  0  0
   -0.9869   -1.6925   -1.0904 H   0  0  0  0  0  0  0  0  0  0  0  0
    0.1584   -1.7436    0.3822 H   0  0  0  0  0  0  0  0  0  0  0  0
   -0.8660   -2.5700    0.0000 H   0  0  0  0  0  0  0  0  0  0  0  0
   -1.7367   -0.6196    2.0097 H   0  0  0  0  0  0  0  0  0  0  0  0
   -4.0806    1.8878   -1.1230 H   0  0  0  0  0  0  0  0  0  0  0  0
   -4.0427    1.9509    1.0796 H   0  0  0  0  0  0  0  0  0  0  0  0
   -4.6681    1.5000    0.0000 H   0  0  0  0  0  0  0  0  0  0  0  0
   -3.6425    0.2847   -1.2093 H   0  0  0  0  0  0  0  0  0  0  0  0
   -2.4161    0.1216   -0.7674 H   0  0  0  0  0  0  0  0  0  0  0  0
   -3.6331   -0.2926    0.0000 H   0  0  0  0  0  0  0  0  0  0  0  0
   -1.8672    2.6683   -0.8646 H   0  0  0  0  0  0  0  0  0  0  0  0
   -3.5087    3.2000   -0.4460 H   0  0  0  0  0  0  0  0  0  0  0  0
   -2.5981    3.5700    0.0000 H   0  0  0  0  0  0  0  0  0  0  0  0
   -0.2574    3.1111    1.3600 H   0  0  0  0  0  0  0  0  0  0  0  0
    1.2759    2.2596   -0.3798 H   0  0  0  0  0  0  0  0  0  0  0  0
    2.9425    0.7248    0.1759 H   0  0  0  0  0  0  0  0  0  0  0  0
  1  2  1  0  0  0  0
  1 15  1  0  0  0  0
  1 16  1  0  0  0  0
  1 17  1  0  0  0  0
  2 11  2  0  0  0  0
  2  3  1  0  0  0  0
  3  4  2  0  0  0  0
  3 18  1  0  0  0  0
  4  5  1  0  0  0  0
  4  9  1  0  0  0  0
  5  6  1  0  0  0  0
  5  7  1  0  0  0  0
  5  8  1  0  0  0  0
  6 19  1  0  0  0  0
  6 20  1  0  0  0  0
  6 21  1  0  0  0  0
  7 22  1  0  0  0  0
  7 23  1  0  0  0  0
  7 24  1  0  0  0  0
  8 25  1  0  0  0  0
  8 26  1  0  0  0  0
  8 27  1  0  0  0  0
  9 10  2  0  0  0  0
  9 28  1  0  0  0  0
 10 11  1  0  0  0  0
 10 29  1  0  0  0  0
 11 12  1  0  0  0  0
 12 13  1  0  0  0  0
 13 14  2  0  0  0  0
 13 30  1  0  0  0  0
M  END
$$$$
