
 OpenBabel03202621312D

 30 30  0  0  1  0  0  0  0  0999 V2000
   -0.8452   -2.8904    0.2114 C   0  0  0  0  0  0  0  0  0  0  0  0
    0.5055   -2.4588    0.3858 O   0  0  0  0  0  0  0  0  0  0  0  0
    0.5665   -1.0939    0.4685 C   0  0  0  0  0  0  0  0  0  0  0  0
    0.1710   -0.4374    1.6260 C   0  0  0  0  0  0  0  0  0  0  0  0
    0.1676    0.9614    1.6541 C   0  0  0  0  0  0  0  0  0  0  0  0
    0.5365    1.6965    0.5158 C   0  0  0  0  0  0  0  0  0  0  0  0
    0.3459    3.1987    0.5213 C   0  0  0  0  0  0  0  0  0  0  0  0
   -1.0263    3.7788    0.0822 C   0  0  2  0  0  0  0  0  0  0  0  0
   -1.0293    5.2105    0.4986 N   0  0  0  0  0  0  0  0  0  0  0  0
   -2.3524    3.0961    0.5890 C   0  0  0  0  0  0  0  0  0  0  0  0
   -3.2279    3.6920    1.2097 O   0  0  0  0  0  0  0  0  0  0  0  0
   -2.5981    1.5000    0.0000 S   0  0  0  0  0  0  0  0  0  0  0  0
   -3.4641    1.0000    0.0000 C   0  0  0  0  0  0  0  0  0  0  0  0
    1.0207    1.0171   -0.6115 C   0  0  0  0  0  0  0  0  0  0  0  0
    1.0509   -0.3851   -0.6263 C   0  0  0  0  0  0  0  0  0  0  0  0
   -1.5685   -2.0702    0.1010 H   0  0  0  0  0  0  0  0  0  0  0  0
   -1.1349   -3.5033    1.0692 H   0  0  0  0  0  0  0  0  0  0  0  0
   -0.8956   -3.5077   -0.6902 H   0  0  0  0  0  0  0  0  0  0  0  0
   -0.1713   -0.9971    2.4888 H   0  0  0  0  0  0  0  0  0  0  0  0
   -0.1882    1.4680    2.5473 H   0  0  0  0  0  0  0  0  0  0  0  0
    0.5993    3.5570    1.5275 H   0  0  0  0  0  0  0  0  0  0  0  0
    1.1187    3.6337   -0.1308 H   0  0  0  0  0  0  0  0  0  0  0  0
   -1.0892    3.7675   -1.0155 H   0  0  0  0  0  0  0  0  0  0  0  0
   -0.4713    5.7658   -0.1462 H   0  0  0  0  0  0  0  0  0  0  0  0
   -1.9876    5.5659    0.4639 H   0  0  0  0  0  0  0  0  0  0  0  0
   -3.9068    1.4091   -0.9292 H   0  0  0  0  0  0  0  0  0  0  0  0
   -3.0775   -0.0125   -0.2203 H   0  0  0  0  0  0  0  0  0  0  0  0
   -4.3907    0.4650    0.0000 H   0  0  0  0  0  0  0  0  0  0  0  0
    1.3547    1.5619   -1.4898 H   0  0  0  0  0  0  0  0  0  0  0  0
    1.4049   -0.9117   -1.5043 H   0  0  0  0  0  0  0  0  0  0  0  0
  1  2  1  0  0  0  0
  1 16  1  0  0  0  0
  1 17  1  0  0  0  0
  1 18  1  0  0  0  0
  2  3  1  0  0  0  0
  3 15  2  0  0  0  0
  3  4  1  0  0  0  0
  4  5  2  0  0  0  0
  4 19  1  0  0  0  0
  5  6  1  0  0  0  0
  5 20  1  0  0  0  0
  6  7  1  0  0  0  0
  6 14  2  0  0  0  0
  7  8  1  0  0  0  0
  7 21  1  0  0  0  0
  7 22  1  0  0  0  0
  8  9  1  0  0  0  0
  8 10  1  0  0  0  0
  8 23  1  6  0  0  0
  9 24  1  0  0  0  0
  9 25  1  0  0  0  0
 10 11  2  0  0  0  0
 10 12  1  0  0  0  0
 12 13  1  0  0  0  0
 13 26  1  0  0  0  0
 13 27  1  0  0  0  0
 13 28  1  0  0  0  0
 14 15  1  0  0  0  0
 14 29  1  0  0  0  0
 15 30  1  0  0  0  0
M  END
$$$$
