
 OpenBabel03202621382D

 23 23  0  0  0  0  0  0  0  0999 V2000
   -0.8660   -3.5000    0.0000 C   0  0  0  0  0  0  0  0  0  0  0  0
    0.0000   -3.0000    0.0000 S   0  0  0  0  0  0  0  0  0  0  0  0
    0.0135   -1.4605   -0.8177 C   0  0  0  0  0  0  0  0  0  0  0  0
    1.0679   -1.1953   -2.0872 S   0  0  0  0  0  0  0  0  0  0  0  0
   -0.9132   -0.6025   -0.2691 N   0  0  0  0  0  0  0  0  0  0  0  0
   -1.0090    0.8065   -0.2986 C   0  0  0  0  0  0  0  0  0  0  0  0
   -2.2297    1.3669    0.0967 C   0  0  0  0  0  0  0  0  0  0  0  0
   -2.3895    2.7538    0.1812 C   0  0  0  0  0  0  0  0  0  0  0  0
   -1.3218    3.6123   -0.1079 C   0  0  0  0  0  0  0  0  0  0  0  0
   -1.4707    5.0994    0.0213 C   0  0  0  0  0  0  0  0  0  0  0  0
   -2.5019    5.7959   -1.4698 Br  0  0  0  0  0  0  0  0  0  0  0  0
   -0.1028    3.0508   -0.5010 C   0  0  0  0  0  0  0  0  0  0  0  0
    0.0522    1.6613   -0.5911 C   0  0  0  0  0  0  0  0  0  0  0  0
   -1.1905   -3.2918    1.0385 H   0  0  0  0  0  0  0  0  0  0  0  0
   -0.4682   -4.5322   -0.0301 H   0  0  0  0  0  0  0  0  0  0  0  0
   -1.7926   -4.0350    0.0000 H   0  0  0  0  0  0  0  0  0  0  0  0
   -1.6144   -1.0549    0.3032 H   0  0  0  0  0  0  0  0  0  0  0  0
   -3.0819    0.7338    0.3291 H   0  0  0  0  0  0  0  0  0  0  0  0
   -3.3556    3.1595    0.4774 H   0  0  0  0  0  0  0  0  0  0  0  0
   -0.5053    5.6144    0.0046 H   0  0  0  0  0  0  0  0  0  0  0  0
   -1.9929    5.3697    0.9442 H   0  0  0  0  0  0  0  0  0  0  0  0
    0.7528    3.6867   -0.7201 H   0  0  0  0  0  0  0  0  0  0  0  0
    1.0401    1.2892   -0.8408 H   0  0  0  0  0  0  0  0  0  0  0  0
  1  2  1  0  0  0  0
  1 14  1  0  0  0  0
  1 15  1  0  0  0  0
  1 16  1  0  0  0  0
  2  3  1  0  0  0  0
  3  4  2  0  0  0  0
  3  5  1  0  0  0  0
  5  6  1  0  0  0  0
  5 17  1  0  0  0  0
  6 13  2  0  0  0  0
  6  7  1  0  0  0  0
  7  8  2  0  0  0  0
  7 18  1  0  0  0  0
  8  9  1  0  0  0  0
  8 19  1  0  0  0  0
  9 10  1  0  0  0  0
  9 12  2  0  0  0  0
 10 11  1  0  0  0  0
 10 20  1  0  0  0  0
 10 21  1  0  0  0  0
 12 13  1  0  0  0  0
 12 22  1  0  0  0  0
 13 23  1  0  0  0  0
M  END
$$$$
