
 OpenBabel03202621322D

 26 26  0  0  1  0  0  0  0  0999 V2000
   -2.5981   -1.5000    0.0000 C   0  0  0  0  0  0  0  0  0  0  0  0
   -1.7321   -2.0000    0.0000 S   0  0  0  0  0  0  0  0  0  0  0  0
   -1.2909   -1.4093    1.5835 C   0  0  0  0  0  0  0  0  0  0  0  0
   -1.3312   -1.9893    2.6166 O   0  0  0  0  0  0  0  0  0  0  0  0
   -1.0832    0.0244    1.2716 C   0  0  2  0  0  0  0  0  0  0  0  0
   -1.9436    1.1448    1.9428 C   0  0  0  0  0  0  0  0  0  0  0  0
   -1.6137    2.4176    1.3357 N   0  0  0  0  0  0  0  0  0  0  0  0
   -1.0352    2.2085    0.0033 C   0  0  0  0  0  0  0  0  0  0  0  0
    0.0000    1.0000    0.0000 C   0  0  0  0  0  0  0  0  0  0  0  0
    0.0000    0.0000    0.0000 C   0  0  1  0  0  0  0  0  0  0  0  0
    0.8660   -0.5000    0.0000 C   0  0  0  0  0  0  0  0  0  0  0  0
   -2.6632   -1.2700   -1.0833 H   0  0  0  0  0  0  0  0  0  0  0  0
   -3.2922   -2.3464    0.1877 H   0  0  0  0  0  0  0  0  0  0  0  0
   -3.5247   -0.9650    0.0000 H   0  0  0  0  0  0  0  0  0  0  0  0
   -1.8705    0.2115    0.5134 H   0  0  0  0  0  0  0  0  0  0  0  0
   -1.8919    1.1518    3.0384 H   0  0  0  0  0  0  0  0  0  0  0  0
   -3.0167    0.9628    1.7251 H   0  0  0  0  0  0  0  0  0  0  0  0
   -2.4344    3.0219    1.2607 H   0  0  0  0  0  0  0  0  0  0  0  0
   -1.7850    2.1046   -0.7904 H   0  0  0  0  0  0  0  0  0  0  0  0
   -0.4754    3.1290   -0.2215 H   0  0  0  0  0  0  0  0  0  0  0  0
    0.6923    1.5065    0.7330 H   0  0  0  0  0  0  0  0  0  0  0  0
    0.4641    1.3793   -0.9497 H   0  0  0  0  0  0  0  0  0  0  0  0
    0.0000   -1.0700    0.0000 H   0  0  0  0  0  0  0  0  0  0  0  0
    1.2949   -0.3233   -1.0447 H   0  0  0  0  0  0  0  0  0  0  0  0
    1.4737   -0.1207    0.8870 H   0  0  0  0  0  0  0  0  0  0  0  0
    1.7926   -1.0350    0.0000 H   0  0  0  0  0  0  0  0  0  0  0  0
  1  2  1  0  0  0  0
  1 12  1  0  0  0  0
  1 13  1  0  0  0  0
  1 14  1  0  0  0  0
  2  3  1  0  0  0  0
  3  4  2  0  0  0  0
  5  3  1  0  0  0  0
  5  6  1  0  0  0  0
  5 10  1  0  0  0  0
  5 15  1  1  0  0  0
  6  7  1  0  0  0  0
  6 16  1  0  0  0  0
  6 17  1  0  0  0  0
  7  8  1  0  0  0  0
  7 18  1  0  0  0  0
  8  9  1  0  0  0  0
  8 19  1  0  0  0  0
  8 20  1  0  0  0  0
  9 10  1  0  0  0  0
  9 21  1  0  0  0  0
  9 22  1  0  0  0  0
 10 11  1  0  0  0  0
 10 23  1  6  0  0  0
 11 24  1  0  0  0  0
 11 25  1  0  0  0  0
 11 26  1  0  0  0  0
M  END
$$$$
