
 OpenBabel03202621342D

 19 18  0  0  0  0  0  0  0  0999 V2000
    4.3301   -1.5000    0.0000 C   0  0  0  0  0  0  0  0  0  0  0  0
    4.3301   -0.5000    0.0000 C   0  0  0  0  0  0  0  0  0  0  0  0
    4.5257    0.3233   -1.6149 S   0  0  1  0  0  0  0  0  0  0  0  0
    5.0345    1.7208   -1.3963 O   0  0  0  0  0  0  0  0  0  0  0  0
    2.7673    0.3648   -2.0011 C   0  0  0  0  0  0  0  0  0  0  0  0
    1.3934    0.4643   -1.4692 C   0  0  0  0  0  0  0  0  0  0  0  0
    0.6198    1.2739   -1.9933 O   0  0  0  0  0  0  0  0  0  0  0  0
    0.8660   -0.5000    0.0000 S   0  0  0  0  0  0  0  0  0  0  0  0
    0.0000    0.0000    0.0000 C   0  0  0  0  0  0  0  0  0  0  0  0
    3.2435   -1.7034    0.0688 H   0  0  0  0  0  0  0  0  0  0  0  0
    4.7481   -1.6989    1.0207 H   0  0  0  0  0  0  0  0  0  0  0  0
    4.3301   -2.5700    0.0000 H   0  0  0  0  0  0  0  0  0  0  0  0
    5.2619   -0.0722    0.4244 H   0  0  0  0  0  0  0  0  0  0  0  0
    3.6127    0.0952    0.5880 H   0  0  0  0  0  0  0  0  0  0  0  0
    2.7096   -0.7146   -2.1031 H   0  0  0  0  0  0  0  0  0  0  0  0
    2.8767    1.0974   -1.1845 H   0  0  0  0  0  0  0  0  0  0  0  0
    0.0371    0.4104    1.0285 H   0  0  0  0  0  0  0  0  0  0  0  0
   -0.6966   -0.8612    0.0035 H   0  0  0  0  0  0  0  0  0  0  0  0
   -0.9266    0.5350    0.0000 H   0  0  0  0  0  0  0  0  0  0  0  0
  1  2  1  0  0  0  0
  1 10  1  0  0  0  0
  1 11  1  0  0  0  0
  1 12  1  0  0  0  0
  2  3  1  0  0  0  0
  2 13  1  0  0  0  0
  2 14  1  0  0  0  0
  3  4  2  6  0  0  0
  3  5  1  0  0  0  0
  5  6  1  0  0  0  0
  5 15  1  0  0  0  0
  5 16  1  0  0  0  0
  6  7  2  0  0  0  0
  6  8  1  0  0  0  0
  8  9  1  0  0  0  0
  9 17  1  0  0  0  0
  9 18  1  0  0  0  0
  9 19  1  0  0  0  0
M  END
$$$$
