
 OpenBabel03202621382D

 41 43  0  0  1  0  0  0  0  0999 V2000
    1.7824    0.6551   -1.7403 O   0  0  0  0  0  0  0  0  0  0  0  0
    2.6740    0.4565   -0.9350 C   0  0  0  0  0  0  0  0  0  0  0  0
    3.5490    1.4053   -0.4032 N   0  0  0  0  0  0  0  0  0  0  0  0
    3.5165    2.8352   -0.7002 C   0  0  0  0  0  0  0  0  0  0  0  0
    2.4814    3.6597    0.1036 C   0  0  1  0  0  0  0  0  0  0  0  0
    2.4747    5.0055   -0.3939 O   0  0  0  0  0  0  0  0  0  0  0  0
    1.0931    3.0399   -0.0219 C   0  0  0  0  0  0  0  0  0  0  0  0
    0.0757    3.8646    0.5269 O   0  0  0  0  0  0  0  0  0  0  0  0
   -1.2202    3.3363    0.3647 C   0  0  0  0  0  0  0  0  0  0  0  0
   -1.4699    2.0535    0.0128 C   0  0  0  0  0  0  0  0  0  0  0  0
   -2.6877    1.4578   -0.1642 O   0  0  0  0  0  0  0  0  0  0  0  0
   -3.8278    2.2742    0.1195 C   0  0  0  0  0  0  0  0  0  0  0  0
   -3.5740    3.7084    0.4356 C   0  0  0  0  0  0  0  0  0  0  0  0
   -2.3541    4.2548    0.5676 C   0  0  0  0  0  0  0  0  0  0  0  0
   -2.0420    5.4510    0.8238 O   0  5  0  0  0  0  0  0  0  0  0  0
    4.5778    0.7804    0.3938 C   0  0  0  0  0  0  0  0  0  0  0  0
    4.1147   -0.6706    0.5332 C   0  0  0  0  0  0  0  0  0  0  0  0
    3.0027   -0.7753   -0.3803 N   0  0  0  0  0  0  0  0  0  0  0  0
    2.2174   -1.9785   -0.5676 C   0  0  0  0  0  0  0  0  0  0  0  0
    1.0588   -2.1352    0.3757 C   0  0  1  0  0  0  0  0  0  0  0  0
   -0.2806   -1.5218    0.0357 C   0  0  0  0  0  0  0  0  0  0  0  0
    0.5777   -0.9650    1.0442 O   0  0  0  0  0  0  0  0  0  0  0  0
    4.5209    3.2480   -0.5497 H   0  0  0  0  0  0  0  0  0  0  0  0
    3.2995    2.9444   -1.7706 H   0  0  0  0  0  0  0  0  0  0  0  0
    2.7696    3.7135    1.1595 H   0  0  0  0  0  0  0  0  0  0  0  0
    1.5861    5.3581   -0.1570 H   0  0  0  0  0  0  0  0  0  0  0  0
    1.1114    2.0891    0.5234 H   0  0  0  0  0  0  0  0  0  0  0  0
    0.8726    2.8935   -1.0897 H   0  0  0  0  0  0  0  0  0  0  0  0
   -0.7088    1.3181   -0.1796 H   0  0  0  0  0  0  0  0  0  0  0  0
   -4.3573    1.8043    0.9555 H   0  0  0  0  0  0  0  0  0  0  0  0
   -4.4866    2.2046   -0.7583 H   0  0  0  0  0  0  0  0  0  0  0  0
   -4.4430    4.3445    0.5651 H   0  0  0  0  0  0  0  0  0  0  0  0
    4.6859    1.2831    1.3585 H   0  0  0  0  0  0  0  0  0  0  0  0
    5.5193    0.8421   -0.1613 H   0  0  0  0  0  0  0  0  0  0  0  0
    4.8966   -1.3735    0.2282 H   0  0  0  0  0  0  0  0  0  0  0  0
    3.7870   -0.9015    1.5505 H   0  0  0  0  0  0  0  0  0  0  0  0
    2.8915   -2.8344   -0.4618 H   0  0  0  0  0  0  0  0  0  0  0  0
    1.8409   -1.9842   -1.5956 H   0  0  0  0  0  0  0  0  0  0  0  0
    1.0649   -3.0703    0.9180 H   0  0  0  0  0  0  0  0  0  0  0  0
   -1.1846   -2.0164    0.3628 H   0  0  0  0  0  0  0  0  0  0  0  0
   -0.3889   -0.9658   -0.8905 H   0  0  0  0  0  0  0  0  0  0  0  0
  1  2  2  0  0  0  0
  2 18  1  0  0  0  0
  2  3  1  0  0  0  0
  3  4  1  0  0  0  0
  3 16  1  0  0  0  0
  4  5  1  0  0  0  0
  4 23  1  0  0  0  0
  4 24  1  0  0  0  0
  5  6  1  0  0  0  0
  5  7  1  0  0  0  0
  5 25  1  1  0  0  0
  6 26  1  0  0  0  0
  7  8  1  0  0  0  0
  7 27  1  0  0  0  0
  7 28  1  0  0  0  0
  8  9  1  0  0  0  0
  9 14  1  0  0  0  0
  9 10  2  0  0  0  0
 10 11  1  0  0  0  0
 10 29  1  0  0  0  0
 11 12  1  0  0  0  0
 12 13  1  0  0  0  0
 12 30  1  0  0  0  0
 12 31  1  0  0  0  0
 13 14  2  0  0  0  0
 13 32  1  0  0  0  0
 14 15  1  0  0  0  0
 16 17  1  0  0  0  0
 16 33  1  0  0  0  0
 16 34  1  0  0  0  0
 17 18  1  0  0  0  0
 17 35  1  0  0  0  0
 17 36  1  0  0  0  0
 18 19  1  0  0  0  0
 19 37  1  0  0  0  0
 19 38  1  0  0  0  0
 20 19  1  0  0  0  0
 20 21  1  0  0  0  0
 20 22  1  0  0  0  0
 20 39  1  6  0  0  0
 21 22  1  0  0  0  0
 21 40  1  0  0  0  0
 21 41  1  0  0  0  0
M  CHG  1  15  -1
M  END
$$$$
