
 OpenBabel03202621362D

 42 42  0  0  1  0  0  0  0  0999 V2000
   -5.1962   -5.0000    0.0000 C   0  0  0  0  0  0  0  0  0  0  0  0
   -4.3301   -4.5000    0.0000 C   0  0  0  0  0  0  0  0  0  0  0  0
   -3.6963   -4.5979    1.0910 O   0  0  0  0  0  0  0  0  0  0  0  0
   -3.6304   -3.6992   -1.0160 C   0  0  0  0  0  0  0  0  0  0  0  0
   -2.7721   -2.7989   -0.1388 C   0  0  0  0  0  0  0  0  0  0  0  0
   -1.6510   -3.1827    0.2087 O   0  0  0  0  0  0  0  0  0  0  0  0
   -3.4957   -1.6408    0.5363 C   0  0  2  0  0  0  0  0  0  0  0  0
   -4.4670   -1.2779   -0.4160 O   0  0  0  0  0  0  0  0  0  0  0  0
   -2.6688   -0.5207    1.1184 C   0  0  0  0  0  0  0  0  0  0  0  0
   -2.1241   -0.6640    2.2350 O   0  0  0  0  0  0  0  0  0  0  0  0
   -2.4727    0.8108    0.3843 C   0  0  2  0  0  0  0  0  0  0  0  0
   -3.7432    1.7057    0.1079 C   0  0  0  0  0  0  0  0  0  0  0  0
   -5.1493    1.1543   -0.1538 C   0  0  0  0  0  0  0  0  0  0  0  0
   -6.1057    2.2065   -0.2772 O   0  0  0  0  0  0  0  0  0  0  0  0
   -1.3625    0.8696   -0.7056 C   0  0  0  0  0  0  0  0  0  0  0  0
   -1.4351    1.6688   -1.6480 O   0  0  0  0  0  0  0  0  0  0  0  0
   -0.0859    0.0907   -0.5708 C   0  0  0  0  0  0  0  0  0  0  0  0
   -0.1360   -1.2783   -0.7415 C   0  0  0  0  0  0  0  0  0  0  0  0
    0.9272   -2.1269   -0.4216 C   0  0  0  0  0  0  0  0  0  0  0  0
    2.1482   -1.5847   -0.0681 C   0  0  0  0  0  0  0  0  0  0  0  0
    2.3000   -0.2044   -0.1720 C   0  0  0  0  0  0  0  0  0  0  0  0
    1.2024    0.6448   -0.4739 C   0  0  0  0  0  0  0  0  0  0  0  0
    1.5034    1.9371   -0.8955 N   0  0  0  0  0  0  0  0  0  0  0  0
    1.3463    2.7895   -0.0146 N   0  3  0  0  0  0  0  0  0  0  0  0
    1.2040    3.5760    0.7948 N   0  5  0  0  0  0  0  0  0  0  0  0
   -5.6982   -4.4814    0.8531 H   0  0  0  0  0  0  0  0  0  0  0  0
   -4.8015   -6.0307    0.1739 H   0  0  0  0  0  0  0  0  0  0  0  0
   -6.1229   -5.5350    0.0000 H   0  0  0  0  0  0  0  0  0  0  0  0
   -4.3192   -3.1445   -1.6572 H   0  0  0  0  0  0  0  0  0  0  0  0
   -2.9954   -4.3246   -1.6484 H   0  0  0  0  0  0  0  0  0  0  0  0
   -4.0452   -2.0702    1.3920 H   0  0  0  0  0  0  0  0  0  0  0  0
   -5.3438   -1.5513   -0.0758 H   0  0  0  0  0  0  0  0  0  0  0  0
   -1.9819    1.4140    1.1702 H   0  0  0  0  0  0  0  0  0  0  0  0
   -3.5302    2.3818   -0.7256 H   0  0  0  0  0  0  0  0  0  0  0  0
   -3.8590    2.3754    0.9722 H   0  0  0  0  0  0  0  0  0  0  0  0
   -5.1991    0.6338   -1.1130 H   0  0  0  0  0  0  0  0  0  0  0  0
   -5.5040    0.5163    0.6630 H   0  0  0  0  0  0  0  0  0  0  0  0
   -6.1967    2.6408    0.5867 H   0  0  0  0  0  0  0  0  0  0  0  0
   -1.0203   -1.6966   -1.1961 H   0  0  0  0  0  0  0  0  0  0  0  0
    0.7959   -3.2084   -0.4589 H   0  0  0  0  0  0  0  0  0  0  0  0
    2.9826   -2.2318    0.1808 H   0  0  0  0  0  0  0  0  0  0  0  0
    3.2974    0.2129   -0.0828 H   0  0  0  0  0  0  0  0  0  0  0  0
  1  2  1  0  0  0  0
  1 26  1  0  0  0  0
  1 27  1  0  0  0  0
  1 28  1  0  0  0  0
  2  3  2  0  0  0  0
  2  4  1  0  0  0  0
  4  5  1  0  0  0  0
  4 29  1  0  0  0  0
  4 30  1  0  0  0  0
  5  6  2  0  0  0  0
  5  7  1  0  0  0  0
  7  8  1  0  0  0  0
  7  9  1  0  0  0  0
  7 31  1  1  0  0  0
  8 32  1  0  0  0  0
  9 10  2  0  0  0  0
  9 11  1  0  0  0  0
 11 12  1  0  0  0  0
 11 15  1  0  0  0  0
 11 33  1  1  0  0  0
 12 13  1  0  0  0  0
 12 34  1  0  0  0  0
 12 35  1  0  0  0  0
 13 14  1  0  0  0  0
 13 36  1  0  0  0  0
 13 37  1  0  0  0  0
 14 38  1  0  0  0  0
 15 16  2  0  0  0  0
 15 17  1  0  0  0  0
 17 22  2  0  0  0  0
 17 18  1  0  0  0  0
 18 19  2  0  0  0  0
 18 39  1  0  0  0  0
 19 20  1  0  0  0  0
 19 40  1  0  0  0  0
 20 21  2  0  0  0  0
 20 41  1  0  0  0  0
 21 22  1  0  0  0  0
 21 42  1  0  0  0  0
 22 23  1  0  0  0  0
 23 24  2  0  0  0  0
 24 25  2  0  0  0  0
M  CHG  2  24   1  25  -1
M  END
$$$$
