
 OpenBabel03202621392D

 21 22  0  0  0  0  0  0  0  0999 V2000
    2.1148    2.5618    0.8575 O   0  0  0  0  0  0  0  0  0  0  0  0
    1.2539    1.8221    0.3730 C   0  0  0  0  0  0  0  0  0  0  0  0
   -0.0307    2.2472    0.2240 O   0  0  0  0  0  0  0  0  0  0  0  0
   -1.3325    1.6667    0.0692 C   0  0  0  0  0  0  0  0  0  0  0  0
   -1.6699    0.4485    0.5170 C   0  0  0  0  0  0  0  0  0  0  0  0
   -3.0685   -0.0622    0.3744 C   0  0  0  0  0  0  0  0  0  0  0  0
   -4.0798    0.9127    0.1068 O   0  0  0  0  0  0  0  0  0  0  0  0
   -3.6427    2.1040   -0.4033 C   0  0  0  0  0  0  0  0  0  0  0  0
   -2.3719    2.5384   -0.4935 C   0  0  0  0  0  0  0  0  0  0  0  0
   -1.9288    3.6166   -0.9732 O   0  5  0  0  0  0  0  0  0  0  0  0
    1.5784    0.4792   -0.0425 C   0  0  0  0  0  0  0  0  0  0  0  0
    2.7106   -0.2625    0.2324 C   0  0  0  0  0  0  0  0  0  0  0  0
    2.5078   -1.4802   -0.4291 C   0  0  0  0  0  0  0  0  0  0  0  0
    1.3498   -1.5010   -1.0918 N   0  0  0  0  0  0  0  0  0  0  0  0
    0.7822   -0.2482   -0.8761 O   0  0  0  0  0  0  0  0  0  0  0  0
   -0.9539   -0.2072    0.9883 H   0  0  0  0  0  0  0  0  0  0  0  0
   -3.1036   -0.8126   -0.4237 H   0  0  0  0  0  0  0  0  0  0  0  0
   -3.3586   -0.5657    1.3028 H   0  0  0  0  0  0  0  0  0  0  0  0
   -4.4760    2.7111   -0.7333 H   0  0  0  0  0  0  0  0  0  0  0  0
    3.5498    0.0550    0.8329 H   0  0  0  0  0  0  0  0  0  0  0  0
    3.1483   -2.3505   -0.4633 H   0  0  0  0  0  0  0  0  0  0  0  0
  1  2  2  0  0  0  0
  2  3  1  0  0  0  0
  2 11  1  0  0  0  0
  3  4  1  0  0  0  0
  4  9  1  0  0  0  0
  4  5  2  0  0  0  0
  5  6  1  0  0  0  0
  5 16  1  0  0  0  0
  6  7  1  0  0  0  0
  6 17  1  0  0  0  0
  6 18  1  0  0  0  0
  7  8  1  0  0  0  0
  8  9  2  0  0  0  0
  8 19  1  0  0  0  0
  9 10  1  0  0  0  0
 11 15  1  0  0  0  0
 11 12  2  0  0  0  0
 12 13  1  0  0  0  0
 12 20  1  0  0  0  0
 13 14  2  0  0  0  0
 13 21  1  0  0  0  0
 14 15  1  0  0  0  0
M  CHG  1  10  -1
M  END
$$$$
