
 OpenBabel03202621392D

 56 58  0  0  1  0  0  0  0  0999 V2000
    2.5981    5.5000    0.0000 C   0  0  0  0  0  0  0  0  0  0  0  0
    1.7321    6.0000    0.0000 C   0  0  0  0  0  0  0  0  0  0  0  0
    1.2252    6.7125   -0.8662 O   0  0  0  0  0  0  0  0  0  0  0  0
    1.0853    5.8981    1.4011 C   0  0  0  0  0  0  0  0  0  0  0  0
    0.6912    4.4074    1.4207 C   0  0  0  0  0  0  0  0  0  0  0  0
    0.8611    3.7053    2.4133 O   0  0  0  0  0  0  0  0  0  0  0  0
    0.0000    4.0000    0.0000 C   0  0  2  0  0  0  0  0  0  0  0  0
   -1.3797    4.1833    0.8740 O   0  0  0  0  0  0  0  0  0  0  0  0
    0.0000    3.0000    0.0000 C   0  0  0  0  0  0  0  0  0  0  0  0
    1.1137    2.6178   -0.4560 O   0  0  0  0  0  0  0  0  0  0  0  0
   -1.0476    1.9042    0.0647 C   0  0  2  0  0  0  0  0  0  0  0  0
   -2.2918    2.3773   -0.7991 C   0  0  0  0  0  0  0  0  0  0  0  0
   -3.5459    1.7028   -0.2771 C   0  0  0  0  0  0  0  0  0  0  0  0
   -4.5242    2.6820    0.1347 O   0  0  0  0  0  0  0  0  0  0  0  0
   -5.7836    2.1360    0.1978 C   0  0  0  0  0  0  0  0  0  0  0  0
   -6.8453    2.9532   -0.1851 C   0  0  0  0  0  0  0  0  0  0  0  0
   -8.1245    2.4074   -0.3270 C   0  0  0  0  0  0  0  0  0  0  0  0
   -8.3242    1.0297   -0.1618 C   0  0  0  0  0  0  0  0  0  0  0  0
   -7.2696    0.2135    0.2410 C   0  0  0  0  0  0  0  0  0  0  0  0
   -6.0519    0.8071    0.5362 C   0  0  0  0  0  0  0  0  0  0  0  0
   -5.0971    0.0705    1.2602 O   0  0  0  0  0  0  0  0  0  0  0  0
   -5.1034   -1.3151    1.2440 C   0  0  0  0  0  0  0  0  0  0  0  0
   -4.2847   -1.9811    1.8619 O   0  0  0  0  0  0  0  0  0  0  0  0
   -6.0974   -1.9002    0.5119 N   0  0  0  0  0  0  0  0  0  0  0  0
   -7.3766   -1.2680    0.3505 C   0  0  0  0  0  0  0  0  0  0  0  0
   -0.6328    0.5061   -0.4811 C   0  0  0  0  0  0  0  0  0  0  0  0
   -1.2730    0.0905   -1.4654 O   0  0  0  0  0  0  0  0  0  0  0  0
    0.5352   -0.3423    0.0748 C   0  0  0  0  0  0  0  0  0  0  0  0
    1.5773    0.2826    0.7909 C   0  0  0  0  0  0  0  0  0  0  0  0
    2.8381   -0.3022    0.9165 C   0  0  0  0  0  0  0  0  0  0  0  0
    3.0399   -1.5804    0.4397 C   0  0  0  0  0  0  0  0  0  0  0  0
    1.9559   -2.2826   -0.0847 C   0  0  0  0  0  0  0  0  0  0  0  0
    0.6653   -1.7286   -0.2747 C   0  0  0  0  0  0  0  0  0  0  0  0
   -0.2649   -2.4820   -0.7216 O   0  5  0  0  0  0  0  0  0  0  0  0
    2.4727    4.9868   -0.9838 H   0  0  0  0  0  0  0  0  0  0  0  0
    3.2647    6.3908   -0.0953 H   0  0  0  0  0  0  0  0  0  0  0  0
    3.5247    4.9650    0.0000 H   0  0  0  0  0  0  0  0  0  0  0  0
    1.7974    6.1325    2.1994 H   0  0  0  0  0  0  0  0  0  0  0  0
    0.2034    6.5397    1.4903 H   0  0  0  0  0  0  0  0  0  0  0  0
    0.0000    5.0700    0.0000 H   0  0  0  0  0  0  0  0  0  0  0  0
   -1.9041    4.8658    0.4114 H   0  0  0  0  0  0  0  0  0  0  0  0
   -1.3236    1.7646    1.1185 H   0  0  0  0  0  0  0  0  0  0  0  0
   -2.1403    2.1093   -1.8538 H   0  0  0  0  0  0  0  0  0  0  0  0
   -2.4541    3.4525   -0.8670 H   0  0  0  0  0  0  0  0  0  0  0  0
   -3.2765    1.1031    0.5937 H   0  0  0  0  0  0  0  0  0  0  0  0
   -3.9458    1.0595   -1.0726 H   0  0  0  0  0  0  0  0  0  0  0  0
   -6.6729    4.0046   -0.3961 H   0  0  0  0  0  0  0  0  0  0  0  0
   -8.9560    3.0465   -0.6110 H   0  0  0  0  0  0  0  0  0  0  0  0
   -9.3080    0.6057   -0.3464 H   0  0  0  0  0  0  0  0  0  0  0  0
   -6.0290   -2.9078    0.5278 H   0  0  0  0  0  0  0  0  0  0  0  0
   -7.9970   -1.5465    1.2069 H   0  0  0  0  0  0  0  0  0  0  0  0
   -7.8083   -1.6824   -0.5658 H   0  0  0  0  0  0  0  0  0  0  0  0
    1.4664    1.2691    1.2170 H   0  0  0  0  0  0  0  0  0  0  0  0
    3.6571    0.2562    1.3558 H   0  0  0  0  0  0  0  0  0  0  0  0
    4.0133   -2.0533    0.4933 H   0  0  0  0  0  0  0  0  0  0  0  0
    2.1096   -3.3197   -0.3866 H   0  0  0  0  0  0  0  0  0  0  0  0
  1  2  1  0  0  0  0
  1 35  1  0  0  0  0
  1 36  1  0  0  0  0
  1 37  1  0  0  0  0
  2  3  2  0  0  0  0
  2  4  1  0  0  0  0
  4  5  1  0  0  0  0
  4 38  1  0  0  0  0
  4 39  1  0  0  0  0
  5  6  2  0  0  0  0
  5  7  1  0  0  0  0
  7  8  1  0  0  0  0
  7  9  1  0  0  0  0
  7 40  1  6  0  0  0
  8 41  1  0  0  0  0
  9 10  2  0  0  0  0
  9 11  1  0  0  0  0
 11 12  1  0  0  0  0
 11 26  1  0  0  0  0
 11 42  1  6  0  0  0
 12 13  1  0  0  0  0
 12 43  1  0  0  0  0
 12 44  1  0  0  0  0
 13 14  1  0  0  0  0
 13 45  1  0  0  0  0
 13 46  1  0  0  0  0
 14 15  1  0  0  0  0
 15 20  2  0  0  0  0
 15 16  1  0  0  0  0
 16 17  2  0  0  0  0
 16 47  1  0  0  0  0
 17 18  1  0  0  0  0
 17 48  1  0  0  0  0
 18 19  2  0  0  0  0
 18 49  1  0  0  0  0
 19 25  1  0  0  0  0
 19 20  1  0  0  0  0
 20 21  1  0  0  0  0
 21 22  1  0  0  0  0
 22 23  2  0  0  0  0
 22 24  1  0  0  0  0
 24 25  1  0  0  0  0
 24 50  1  0  0  0  0
 25 51  1  0  0  0  0
 25 52  1  0  0  0  0
 26 27  2  0  0  0  0
 26 28  1  0  0  0  0
 28 33  2  0  0  0  0
 28 29  1  0  0  0  0
 29 30  2  0  0  0  0
 29 53  1  0  0  0  0
 30 31  1  0  0  0  0
 30 54  1  0  0  0  0
 31 32  2  0  0  0  0
 31 55  1  0  0  0  0
 32 33  1  0  0  0  0
 32 56  1  0  0  0  0
 33 34  1  0  0  0  0
M  CHG  1  34  -1
M  END
$$$$
