
 OpenBabel03202621292D

 16 16  0  0  0  0  0  0  0  0999 V2000
    3.8105   -1.3403   -0.0000 O   0  0  0  0  0  0  0  0  0  0  0  0
    3.4235   -0.1815   -0.0000 C   0  0  0  0  0  0  0  0  0  0  0  0
    2.1340    0.3040    0.0000 N   0  0  0  0  0  0  0  0  0  0  0  0
    0.9469   -0.4017    0.0000 C   0  0  0  0  0  0  0  0  0  0  0  0
    0.9195   -1.8527    0.0000 C   0  0  0  0  0  0  0  0  0  0  0  0
   -0.2454   -2.5115   -0.0000 C   0  0  0  0  0  0  0  0  0  0  0  0
   -1.4276   -1.8238   -0.0000 N   0  0  0  0  0  0  0  0  0  0  0  0
   -1.5091   -0.4549   -0.0000 C   0  0  0  0  0  0  0  0  0  0  0  0
   -2.5763    0.1497    0.0000 O   0  0  0  0  0  0  0  0  0  0  0  0
   -0.2166    0.2740    0.0000 C   0  0  0  0  0  0  0  0  0  0  0  0
    4.1474    0.6512   -0.0000 H   0  0  0  0  0  0  0  0  0  0  0  0
    2.0569    1.3146    0.0000 H   0  0  0  0  0  0  0  0  0  0  0  0
    1.8384   -2.4262    0.0000 H   0  0  0  0  0  0  0  0  0  0  0  0
   -0.3008   -3.5954   -0.0000 H   0  0  0  0  0  0  0  0  0  0  0  0
   -2.3099   -2.3228   -0.0000 H   0  0  0  0  0  0  0  0  0  0  0  0
   -0.2913    1.3530    0.0000 H   0  0  0  0  0  0  0  0  0  0  0  0
  1  2  2  0  0  0  0
  2  3  1  0  0  0  0
  2 11  1  0  0  0  0
  3  4  1  0  0  0  0
  3 12  1  0  0  0  0
  4 10  2  0  0  0  0
  4  5  1  0  0  0  0
  5  6  2  0  0  0  0
  5 13  1  0  0  0  0
  6  7  1  0  0  0  0
  6 14  1  0  0  0  0
  7  8  1  0  0  0  0
  7 15  1  0  0  0  0
  8  9  2  0  0  0  0
  8 10  1  0  0  0  0
 10 16  1  0  0  0  0
M  END
$$$$
