
 OpenBabel03202621362D

 30 30  0  0  1  0  0  0  0  0999 V2000
   -3.3660   -2.3660    0.0000 C   0  0  0  0  0  0  0  0  0  0  0  0
   -2.3660   -2.3660    0.0000 S   0  0  0  0  0  0  0  0  0  0  0  0
   -1.8660   -1.5000    0.0000 C   0  0  0  0  0  0  0  0  0  0  0  0
   -1.8660   -0.5000    0.0000 C   0  0  0  0  0  0  0  0  0  0  0  0
   -3.5873   -0.4518    0.4707 C   0  0  0  0  0  0  0  0  0  0  0  0
   -0.8660   -1.5000    0.0000 C   0  0  1  0  0  0  0  0  0  0  0  0
   -0.8660   -2.5000    0.0000 O   0  0  0  0  0  0  0  0  0  0  0  0
    0.1340   -1.5000    0.0000 C   0  0  0  0  0  0  0  0  0  0  0  0
    1.1340   -1.5000    0.0000 N   0  0  0  0  0  0  0  0  0  0  0  0
   -0.8660   -0.5000    0.0000 C   0  0  0  0  0  0  0  0  0  0  0  0
   -0.4001    0.4199   -1.3800 C   0  0  0  0  0  0  0  0  0  0  0  0
    0.0225    1.7607   -1.3584 C   0  0  0  0  0  0  0  0  0  0  0  0
    0.2824    2.4174   -0.1342 C   0  0  0  0  0  0  0  0  0  0  0  0
    0.2172    1.7912    1.1313 C   0  0  0  0  0  0  0  0  0  0  0  0
   -0.2235    0.4603    1.2606 C   0  0  0  0  0  0  0  0  0  0  0  0
   -3.5545   -2.9699    0.9261 H   0  0  0  0  0  0  0  0  0  0  0  0
   -3.5538   -3.0773   -0.8405 H   0  0  0  0  0  0  0  0  0  0  0  0
   -4.4360   -2.3660    0.0000 H   0  0  0  0  0  0  0  0  0  0  0  0
   -2.1082   -0.2180    1.3349 H   0  0  0  0  0  0  0  0  0  0  0  0
   -2.5116   -0.1799   -1.0586 H   0  0  0  0  0  0  0  0  0  0  0  0
   -1.8660    0.5700    0.0000 H   0  0  0  0  0  0  0  0  0  0  0  0
   -3.5450    0.6672    0.5940 H   0  0  0  0  0  0  0  0  0  0  0  0
   -4.0298   -0.7822    1.4386 H   0  0  0  0  0  0  0  0  0  0  0  0
   -4.3326   -0.4754   -0.3728 H   0  0  0  0  0  0  0  0  0  0  0  0
   -0.8032   -3.0729   -0.8061 H   0  0  0  0  0  0  0  0  0  0  0  0
   -0.4975   -0.0930   -2.3444 H   0  0  0  0  0  0  0  0  0  0  0  0
    0.1611    2.2982   -2.2943 H   0  0  0  0  0  0  0  0  0  0  0  0
    0.6048    3.4606   -0.1771 H   0  0  0  0  0  0  0  0  0  0  0  0
    0.5547    2.3453    2.0116 H   0  0  0  0  0  0  0  0  0  0  0  0
   -0.1499   -0.0185    2.2464 H   0  0  0  0  0  0  0  0  0  0  0  0
  1  2  1  0  0  0  0
  1 16  1  0  0  0  0
  1 17  1  0  0  0  0
  1 18  1  0  0  0  0
  2  3  1  0  0  0  0
  3  4  1  0  0  0  0
  3  5  1  0  0  0  0
  3  6  1  0  0  0  0
  4 19  1  0  0  0  0
  4 20  1  0  0  0  0
  4 21  1  0  0  0  0
  5 22  1  0  0  0  0
  5 23  1  0  0  0  0
  5 24  1  0  0  0  0
  6  7  1  0  0  0  0
  6  8  1  6  0  0  0
  6 10  1  0  0  0  0
  7 25  1  0  0  0  0
  8  9  3  0  0  0  0
 10 15  2  0  0  0  0
 10 11  1  0  0  0  0
 11 12  2  0  0  0  0
 11 26  1  0  0  0  0
 12 13  1  0  0  0  0
 12 27  1  0  0  0  0
 13 14  2  0  0  0  0
 13 28  1  0  0  0  0
 14 15  1  0  0  0  0
 14 29  1  0  0  0  0
 15 30  1  0  0  0  0
M  END
$$$$
