
 OpenBabel03202621282D

 16 17  0  0  1  0  0  0  0  0999 V2000
   -1.1567   -1.1567    0.0000 N   0  0  0  0  0  0  0  0  0  0  0  0
   -0.9123   -0.2444    0.0000 C   0  0  0  0  0  0  0  0  0  0  0  0
   -1.5801    0.4234    0.0000 N   0  0  0  0  0  0  0  0  0  0  0  0
   -1.3356    1.3356    0.0000 C   0  0  0  0  0  0  0  0  0  0  0  0
   -0.4234    1.5801    0.0000 C   0  0  0  0  0  0  0  0  0  0  0  0
   -0.1789    2.4923    0.0000 F   0  0  0  0  0  0  0  0  0  0  0  0
    0.2444    0.9123    0.0000 C   0  0  0  0  0  0  0  0  0  0  0  0
    2.0690    1.4011    0.0000 C   0  0  3  0  0  0  0  0  0  0  0  0
    2.1922    2.3375    0.0000 O   0  0  0  0  0  0  0  0  0  0  0  0
    2.8869    1.8734    0.0000 C   0  0  0  0  0  0  0  0  0  0  0  0
    3.7048    1.4011    0.0000 C   0  0  0  0  0  0  0  0  0  0  0  0
    3.7048    0.4567    0.0000 O   0  0  0  0  0  0  0  0  0  0  0  0
    2.8869   -0.0155    0.0000 C   0  0  0  0  0  0  0  0  0  0  0  0
    2.0690    0.4567    0.0000 C   0  0  0  0  0  0  0  0  0  0  0  0
    1.2511   -0.0155    0.0000 O   0  0  0  0  0  0  0  0  0  0  0  0
    0.0000    0.0000    0.0000 N   0  0  0  0  0  0  0  0  0  0  0  0
  1  2  1  0  0  0  0
  2 16  2  0  0  0  0
  2  3  1  0  0  0  0
  3  4  2  0  0  0  0
  4  5  1  0  0  0  0
  5  6  1  0  0  0  0
  5  7  2  0  0  0  0
  7  8  1  0  0  0  0
  7 16  1  0  0  0  0
  8 14  1  0  0  0  0
  8  9  1  0  0  0  0
  8 10  1  0  0  0  0
 10 11  1  0  0  0  0
 11 12  1  0  0  0  0
 12 13  1  0  0  0  0
 13 14  2  0  0  0  0
 14 15  1  0  0  0  0
M  END
$$$$
