
 OpenBabel03202621322D

 33 33  0  0  1  0  0  0  0  0999 V2000
    2.5981   -0.5000    0.0000 C   0  0  0  0  0  0  0  0  0  0  0  0
    3.4641    0.0000    0.0000 C   0  0  0  0  0  0  0  0  0  0  0  0
    3.4641    1.0000    0.0000 N   0  0  0  0  0  0  0  0  0  0  0  0
    4.3301    1.5000    0.0000 C   0  0  0  0  0  0  0  0  0  0  0  0
    2.5981    1.5000    0.0000 C   0  0  1  0  0  0  0  0  0  0  0  0
    2.5981    2.5000    0.0000 C   0  0  0  0  0  0  0  0  0  0  0  0
    0.8904    1.2062   -0.0132 C   0  0  0  0  0  0  0  0  0  0  0  0
    0.2131    1.5127    0.9701 O   0  0  0  0  0  0  0  0  0  0  0  0
    0.3674    0.5155   -1.0848 O   0  0  0  0  0  0  0  0  0  0  0  0
   -0.7804   -0.2471   -0.6866 C   0  0  0  0  0  0  0  0  0  0  0  0
   -0.7052   -1.5658   -0.4418 C   0  0  0  0  0  0  0  0  0  0  0  0
   -1.6632   -2.3909    0.0796 O   0  0  0  0  0  0  0  0  0  0  0  0
   -2.9951   -1.9509   -0.1392 C   0  0  0  0  0  0  0  0  0  0  0  0
   -3.2188   -0.4786    0.1403 C   0  0  0  0  0  0  0  0  0  0  0  0
   -2.0980    0.3955   -0.4010 C   0  0  0  0  0  0  0  0  0  0  0  0
   -2.2768    1.5972   -0.5854 O   0  0  0  0  0  0  0  0  0  0  0  0
    2.4408   -0.6815   -1.1184 H   0  0  0  0  0  0  0  0  0  0  0  0
    2.8930   -1.5332    0.3707 H   0  0  0  0  0  0  0  0  0  0  0  0
    1.6715   -1.0350    0.0000 H   0  0  0  0  0  0  0  0  0  0  0  0
    4.0052   -0.3963    0.9218 H   0  0  0  0  0  0  0  0  0  0  0  0
    4.1737   -0.5125   -0.7267 H   0  0  0  0  0  0  0  0  0  0  0  0
    4.9143    1.1904    0.9215 H   0  0  0  0  0  0  0  0  0  0  0  0
    4.7986    1.3141   -1.0161 H   0  0  0  0  0  0  0  0  0  0  0  0
    5.2567    2.0350    0.0000 H   0  0  0  0  0  0  0  0  0  0  0  0
    2.3671    1.3860    1.1364 H   0  0  0  0  0  0  0  0  0  0  0  0
    3.1497    2.9203    0.9168 H   0  0  0  0  0  0  0  0  0  0  0  0
    2.7949    2.7848   -1.0750 H   0  0  0  0  0  0  0  0  0  0  0  0
    2.5981    3.5700    0.0000 H   0  0  0  0  0  0  0  0  0  0  0  0
    0.1943   -2.1538   -0.5665 H   0  0  0  0  0  0  0  0  0  0  0  0
   -3.2657   -2.2063   -1.1631 H   0  0  0  0  0  0  0  0  0  0  0  0
   -3.6431   -2.5509    0.5177 H   0  0  0  0  0  0  0  0  0  0  0  0
   -3.3090   -0.2983    1.2175 H   0  0  0  0  0  0  0  0  0  0  0  0
   -4.1600   -0.1827   -0.3402 H   0  0  0  0  0  0  0  0  0  0  0  0
  1  2  1  0  0  0  0
  1 17  1  0  0  0  0
  1 18  1  0  0  0  0
  1 19  1  0  0  0  0
  2  3  1  0  0  0  0
  2 20  1  0  0  0  0
  2 21  1  0  0  0  0
  3  4  1  0  0  0  0
  3  5  1  0  0  0  0
  4 22  1  0  0  0  0
  4 23  1  0  0  0  0
  4 24  1  0  0  0  0
  5  6  1  0  0  0  0
  5  7  1  0  0  0  0
  5 25  1  1  0  0  0
  6 26  1  0  0  0  0
  6 27  1  0  0  0  0
  6 28  1  0  0  0  0
  7  8  2  0  0  0  0
  7  9  1  0  0  0  0
  9 10  1  0  0  0  0
 10 15  1  0  0  0  0
 10 11  2  0  0  0  0
 11 12  1  0  0  0  0
 11 29  1  0  0  0  0
 12 13  1  0  0  0  0
 13 14  1  0  0  0  0
 13 30  1  0  0  0  0
 13 31  1  0  0  0  0
 14 15  1  0  0  0  0
 14 32  1  0  0  0  0
 14 33  1  0  0  0  0
 15 16  2  0  0  0  0
M  END
$$$$
