
 OpenBabel03202621302D

 31 31  0  0  1  0  0  0  0  0999 V2000
    2.7321   -3.0000    0.0000 C   0  0  0  0  0  0  0  0  0  0  0  0
    3.5981   -2.5000    0.0000 S   0  0  0  0  0  0  0  0  0  0  0  0
    3.8187   -2.0785   -1.7547 C   0  0  0  0  0  0  0  0  0  0  0  0
    2.6135   -1.3514   -2.3373 C   0  0  1  0  0  0  0  0  0  0  0  0
    2.8755    0.0414   -2.4309 O   0  0  0  0  0  0  0  0  0  0  0  0
    1.2445   -1.6595   -1.6574 C   0  0  0  0  0  0  0  0  0  0  0  0
    1.0000   -1.0000    0.0000 N   0  0  0  0  0  0  0  0  0  0  0  0
    1.0000    0.0000    0.0000 S   0  0  0  0  0  0  0  0  0  0  0  0
    2.0000    0.0000    0.0000 O   0  0  0  0  0  0  0  0  0  0  0  0
    1.0000    1.0000    0.0000 O   0  0  0  0  0  0  0  0  0  0  0  0
    0.0000    0.0000    0.0000 C   0  0  0  0  0  0  0  0  0  0  0  0
   -1.1499   -0.8934   -0.5399 C   0  0  0  0  0  0  0  0  0  0  0  0
   -2.5763   -0.8178   -0.4972 C   0  0  0  0  0  0  0  0  0  0  0  0
   -3.1921    0.2424    0.1099 C   0  0  0  0  0  0  0  0  0  0  0  0
   -2.3843    1.1529    0.7515 C   0  0  0  0  0  0  0  0  0  0  0  0
   -0.9637    0.9879    0.7501 C   0  0  0  0  0  0  0  0  0  0  0  0
    2.6159   -3.1249    1.0965 H   0  0  0  0  0  0  0  0  0  0  0  0
    3.0878   -3.9901   -0.3586 H   0  0  0  0  0  0  0  0  0  0  0  0
    1.8055   -3.5350    0.0000 H   0  0  0  0  0  0  0  0  0  0  0  0
    4.7303   -1.4765   -1.8520 H   0  0  0  0  0  0  0  0  0  0  0  0
    3.9939   -3.0103   -2.3037 H   0  0  0  0  0  0  0  0  0  0  0  0
    2.5252   -1.6767   -3.3835 H   0  0  0  0  0  0  0  0  0  0  0  0
    2.9376    0.3844   -1.4983 H   0  0  0  0  0  0  0  0  0  0  0  0
    0.5056   -1.1558   -2.3056 H   0  0  0  0  0  0  0  0  0  0  0  0
    0.9717   -2.7202   -1.6506 H   0  0  0  0  0  0  0  0  0  0  0  0
    1.4218   -1.6010    0.6871 H   0  0  0  0  0  0  0  0  0  0  0  0
   -0.8947   -1.8759   -0.9564 H   0  0  0  0  0  0  0  0  0  0  0  0
   -3.1676   -1.6229   -0.9292 H   0  0  0  0  0  0  0  0  0  0  0  0
   -4.2727    0.3373    0.1162 H   0  0  0  0  0  0  0  0  0  0  0  0
   -2.8247    2.0136    1.2469 H   0  0  0  0  0  0  0  0  0  0  0  0
   -0.4713    1.8014    1.3180 H   0  0  0  0  0  0  0  0  0  0  0  0
  1  2  1  0  0  0  0
  1 17  1  0  0  0  0
  1 18  1  0  0  0  0
  1 19  1  0  0  0  0
  2  3  1  0  0  0  0
  3  4  1  0  0  0  0
  3 20  1  0  0  0  0
  3 21  1  0  0  0  0
  4  5  1  0  0  0  0
  4  6  1  0  0  0  0
  4 22  1  1  0  0  0
  5 23  1  0  0  0  0
  6  7  1  0  0  0  0
  6 24  1  0  0  0  0
  6 25  1  0  0  0  0
  7  8  1  0  0  0  0
  7 26  1  0  0  0  0
  8  9  2  0  0  0  0
  8 10  2  0  0  0  0
  8 11  1  0  0  0  0
 11 16  2  0  0  0  0
 11 12  1  0  0  0  0
 12 13  2  0  0  0  0
 12 27  1  0  0  0  0
 13 14  1  0  0  0  0
 13 28  1  0  0  0  0
 14 15  2  0  0  0  0
 14 29  1  0  0  0  0
 15 16  1  0  0  0  0
 15 30  1  0  0  0  0
 16 31  1  0  0  0  0
M  END
$$$$
