
 OpenBabel03202621372D

 29 31  0  0  0  0  0  0  0  0999 V2000
   -1.5878   -0.8090    0.0000 C   0  0  0  0  0  0  0  0  0  0  0  0
   -1.0000    0.0000    0.0000 C   0  0  0  0  0  0  0  0  0  0  0  0
   -0.9075    1.1531   -0.7821 C   0  0  0  0  0  0  0  0  0  0  0  0
   -0.2270    2.0503   -0.0117 N   0  0  0  0  0  0  0  0  0  0  0  0
   -0.1654    3.4902   -0.1241 C   0  0  0  0  0  0  0  0  0  0  0  0
   -1.4632    4.2594    0.0369 C   0  0  0  0  0  0  0  0  0  0  0  0
   -1.4695    5.4826   -0.1425 O   0  0  0  0  0  0  0  0  0  0  0  0
   -2.7797    3.6180    0.3272 C   0  0  0  0  0  0  0  0  0  0  0  0
   -2.9451    2.6029    1.2902 C   0  0  0  0  0  0  0  0  0  0  0  0
   -4.1893    1.9821    1.4660 C   0  0  0  0  0  0  0  0  0  0  0  0
   -5.2507    2.4351    0.7114 C   0  0  0  0  0  0  0  0  0  0  0  0
   -5.1094    3.4702   -0.1798 C   0  0  0  0  0  0  0  0  0  0  0  0
   -3.8933    4.0840   -0.3943 C   0  0  0  0  0  0  0  0  0  0  0  0
   -6.2763    3.7823   -0.8022 O   0  0  0  0  0  0  0  0  0  0  0  0
   -7.1758    2.8340   -0.1879 C   0  0  0  0  0  0  0  0  0  0  0  0
   -6.5197    1.9556    0.7514 O   0  0  0  0  0  0  0  0  0  0  0  0
    0.3371    1.4402    1.0353 N   0  0  0  0  0  0  0  0  0  0  0  0
   -0.1353    0.2054    1.0641 N   0  0  0  0  0  0  0  0  0  0  0  0
   -2.5675   -0.3549   -0.2815 H   0  0  0  0  0  0  0  0  0  0  0  0
   -1.1459   -1.3459   -0.8716 H   0  0  0  0  0  0  0  0  0  0  0  0
   -2.2167   -1.6746    0.0000 H   0  0  0  0  0  0  0  0  0  0  0  0
   -1.4219    1.4477   -1.6870 H   0  0  0  0  0  0  0  0  0  0  0  0
    0.5386    3.8572    0.6308 H   0  0  0  0  0  0  0  0  0  0  0  0
    0.2410    3.7026   -1.1194 H   0  0  0  0  0  0  0  0  0  0  0  0
   -2.1158    2.2709    1.9116 H   0  0  0  0  0  0  0  0  0  0  0  0
   -4.3174    1.1696    2.1738 H   0  0  0  0  0  0  0  0  0  0  0  0
   -3.8070    4.9014   -1.1034 H   0  0  0  0  0  0  0  0  0  0  0  0
   -7.9642    3.3833    0.3399 H   0  0  0  0  0  0  0  0  0  0  0  0
   -7.6366    2.2290   -0.9772 H   0  0  0  0  0  0  0  0  0  0  0  0
  1  2  1  0  0  0  0
  1 19  1  0  0  0  0
  1 20  1  0  0  0  0
  1 21  1  0  0  0  0
  2 18  1  0  0  0  0
  2  3  2  0  0  0  0
  3  4  1  0  0  0  0
  3 22  1  0  0  0  0
  4  5  1  0  0  0  0
  4 17  1  0  0  0  0
  5  6  1  0  0  0  0
  5 23  1  0  0  0  0
  5 24  1  0  0  0  0
  6  7  2  0  0  0  0
  6  8  1  0  0  0  0
  8 13  2  0  0  0  0
  8  9  1  0  0  0  0
  9 10  2  0  0  0  0
  9 25  1  0  0  0  0
 10 11  1  0  0  0  0
 10 26  1  0  0  0  0
 11 16  1  0  0  0  0
 11 12  2  0  0  0  0
 12 13  1  0  0  0  0
 12 14  1  0  0  0  0
 13 27  1  0  0  0  0
 14 15  1  0  0  0  0
 15 16  1  0  0  0  0
 15 28  1  0  0  0  0
 15 29  1  0  0  0  0
 17 18  2  0  0  0  0
M  END
$$$$
