
 OpenBabel03202621312D

 17 17  0  0  0  0  0  0  0  0999 V2000
   -0.7030   -4.5364   -0.3454 O   0  0  0  0  0  0  0  0  0  0  0  0
    0.1949   -3.8015    0.0403 C   0  0  0  0  0  0  0  0  0  0  0  0
    0.0913   -2.4878    0.3219 O   0  0  0  0  0  0  0  0  0  0  0  0
   -1.2035   -1.9198    0.0788 C   0  0  0  0  0  0  0  0  0  0  0  0
   -1.1030   -0.4078    0.0043 C   0  0  0  0  0  0  0  0  0  0  0  0
   -2.2687    0.3623   -0.0219 C   0  0  0  0  0  0  0  0  0  0  0  0
   -2.1611    1.7526   -0.0595 C   0  0  0  0  0  0  0  0  0  0  0  0
   -0.9010    2.3289   -0.0801 C   0  0  0  0  0  0  0  0  0  0  0  0
   -0.7648    3.6600   -0.0988 F   0  0  0  0  0  0  0  0  0  0  0  0
    0.2077    1.5065   -0.0784 C   0  0  0  0  0  0  0  0  0  0  0  0
    0.1348    0.1565   -0.0423 N   0  0  0  0  0  0  0  0  0  0  0  0
    1.2312   -4.1277    0.2186 H   0  0  0  0  0  0  0  0  0  0  0  0
   -1.6255   -2.2890   -0.8633 H   0  0  0  0  0  0  0  0  0  0  0  0
   -1.8578   -2.1923    0.9149 H   0  0  0  0  0  0  0  0  0  0  0  0
   -3.2482   -0.1067   -0.0042 H   0  0  0  0  0  0  0  0  0  0  0  0
   -3.0436    2.3831   -0.0660 H   0  0  0  0  0  0  0  0  0  0  0  0
    1.2096    1.9219   -0.1022 H   0  0  0  0  0  0  0  0  0  0  0  0
  1  2  2  0  0  0  0
  2  3  1  0  0  0  0
  2 12  1  0  0  0  0
  3  4  1  0  0  0  0
  4  5  1  0  0  0  0
  4 13  1  0  0  0  0
  4 14  1  0  0  0  0
  5 11  2  0  0  0  0
  5  6  1  0  0  0  0
  6  7  2  0  0  0  0
  6 15  1  0  0  0  0
  7  8  1  0  0  0  0
  7 16  1  0  0  0  0
  8  9  1  0  0  0  0
  8 10  2  0  0  0  0
 10 11  1  0  0  0  0
 10 17  1  0  0  0  0
M  END
$$$$
