
 OpenBabel03202621322D

 23 23  0  0  0  0  0  0  0  0999 V2000
   -3.4641   -3.0000    0.0000 C   0  0  0  0  0  0  0  0  0  0  0  0
   -2.5981   -3.5000    0.0000 S   0  0  0  0  0  0  0  0  0  0  0  0
   -1.0826   -2.8217    0.4450 C   0  0  0  0  0  0  0  0  0  0  0  0
    0.0209   -3.6967    1.3436 S   0  0  0  0  0  0  0  0  0  0  0  0
   -0.8823   -1.5792   -0.0895 N   0  0  0  0  0  0  0  0  0  0  0  0
    0.3255   -0.7782    0.0353 C   0  0  0  0  0  0  0  0  0  0  0  0
    0.0402    0.6966    0.0523 C   0  0  0  0  0  0  0  0  0  0  0  0
   -1.2386    1.2258    0.2945 C   0  0  0  0  0  0  0  0  0  0  0  0
   -1.4405    2.6032    0.3191 C   0  0  0  0  0  0  0  0  0  0  0  0
   -3.0226    3.2258    0.5786 Cl  0  0  0  0  0  0  0  0  0  0  0  0
   -0.3700    3.4802    0.1348 C   0  0  0  0  0  0  0  0  0  0  0  0
    0.9095    2.9658   -0.0743 C   0  0  0  0  0  0  0  0  0  0  0  0
    1.1053    1.5906   -0.1138 C   0  0  0  0  0  0  0  0  0  0  0  0
    2.3436    1.1176   -0.3115 F   0  0  0  0  0  0  0  0  0  0  0  0
   -3.4666   -2.6449   -1.0493 H   0  0  0  0  0  0  0  0  0  0  0  0
   -4.1580   -3.8591    0.0681 H   0  0  0  0  0  0  0  0  0  0  0  0
   -4.3907   -2.4650    0.0000 H   0  0  0  0  0  0  0  0  0  0  0  0
   -1.5488   -1.2913   -0.7932 H   0  0  0  0  0  0  0  0  0  0  0  0
    0.8677   -1.0379    0.9502 H   0  0  0  0  0  0  0  0  0  0  0  0
    0.9532   -1.0305   -0.8285 H   0  0  0  0  0  0  0  0  0  0  0  0
   -2.0864    0.5677    0.4731 H   0  0  0  0  0  0  0  0  0  0  0  0
   -0.5272    4.5541    0.1644 H   0  0  0  0  0  0  0  0  0  0  0  0
    1.7570    3.6332   -0.2025 H   0  0  0  0  0  0  0  0  0  0  0  0
  1  2  1  0  0  0  0
  1 15  1  0  0  0  0
  1 16  1  0  0  0  0
  1 17  1  0  0  0  0
  2  3  1  0  0  0  0
  3  4  2  0  0  0  0
  3  5  1  0  0  0  0
  5  6  1  0  0  0  0
  5 18  1  0  0  0  0
  6  7  1  0  0  0  0
  6 19  1  0  0  0  0
  6 20  1  0  0  0  0
  7 13  2  0  0  0  0
  7  8  1  0  0  0  0
  8  9  2  0  0  0  0
  8 21  1  0  0  0  0
  9 10  1  0  0  0  0
  9 11  1  0  0  0  0
 11 12  2  0  0  0  0
 11 22  1  0  0  0  0
 12 13  1  0  0  0  0
 12 23  1  0  0  0  0
 13 14  1  0  0  0  0
M  END
$$$$
