
 OpenBabel03202621352D

 39 40  0  0  1  0  0  0  0  0999 V2000
    1.1340    1.5000    0.0000 C   0  0  0  0  0  0  0  0  0  0  0  0
    1.1340    0.5000    0.0000 S   0  0  0  0  0  0  0  0  0  0  0  0
    2.0000    0.0000    0.0000 C   0  0  1  0  0  0  0  0  0  0  0  0
    2.5000    0.8660    0.0000 C   0  0  0  0  0  0  0  0  0  0  0  0
    2.8660   -0.5000    0.0000 C   0  0  0  0  0  0  0  0  0  0  0  0
    3.6728   -1.8303    0.4208 C   0  0  0  0  0  0  0  0  0  0  0  0
    5.0391   -2.4039    0.2834 C   0  0  0  0  0  0  0  0  0  0  0  0
    6.1228   -1.6553   -0.0589 C   0  0  0  0  0  0  0  0  0  0  0  0
    5.8433   -0.3505   -0.2686 C   0  0  0  0  0  0  0  0  0  0  0  0
    4.4587    0.0642   -0.2832 C   0  0  0  0  0  0  0  0  0  0  0  0
    1.5000   -0.8660    0.0000 C   0  0  1  0  0  0  0  0  0  0  0  0
    1.5000   -1.8660    0.0000 C   0  0  0  0  0  0  0  0  0  0  0  0
    1.4531   -0.9664   -1.8528 O   0  0  0  0  0  0  0  0  0  0  0  0
   -0.5007   -1.1402    0.0958 C   0  0  0  0  0  0  0  0  0  0  0  0
   -1.1202   -2.4127    0.2593 C   0  0  0  0  0  0  0  0  0  0  0  0
   -2.5293   -2.5758    0.2261 C   0  0  0  0  0  0  0  0  0  0  0  0
   -3.4109   -1.5097    0.1063 C   0  0  0  0  0  0  0  0  0  0  0  0
   -2.8702   -0.2371   -0.0717 C   0  0  0  0  0  0  0  0  0  0  0  0
   -1.4924   -0.0672   -0.1201 C   0  0  0  0  0  0  0  0  0  0  0  0
    0.6083    1.7278   -0.9758 H   0  0  0  0  0  0  0  0  0  0  0  0
    0.3916    1.7173    0.8159 H   0  0  0  0  0  0  0  0  0  0  0  0
    1.1340    2.5700    0.0000 H   0  0  0  0  0  0  0  0  0  0  0  0
    2.8835    1.1733   -1.1757 H   0  0  0  0  0  0  0  0  0  0  0  0
    3.0052    1.1169    1.1267 H   0  0  0  0  0  0  0  0  0  0  0  0
    3.0350    1.7926    0.0000 H   0  0  0  0  0  0  0  0  0  0  0  0
    3.1544   -2.6417    0.9706 H   0  0  0  0  0  0  0  0  0  0  0  0
    5.1901   -3.4535    0.5180 H   0  0  0  0  0  0  0  0  0  0  0  0
    7.1413   -2.0365   -0.0811 H   0  0  0  0  0  0  0  0  0  0  0  0
    6.6365    0.3927   -0.3750 H   0  0  0  0  0  0  0  0  0  0  0  0
    4.6066    1.1636   -0.4154 H   0  0  0  0  0  0  0  0  0  0  0  0
    0.8860   -2.3235   -0.8263 H   0  0  0  0  0  0  0  0  0  0  0  0
    1.2265   -2.1054    1.0776 H   0  0  0  0  0  0  0  0  0  0  0  0
    1.5000   -2.9360    0.0000 H   0  0  0  0  0  0  0  0  0  0  0  0
    2.3060   -1.3914   -2.0702 H   0  0  0  0  0  0  0  0  0  0  0  0
   -0.5543   -3.3361    0.3301 H   0  0  0  0  0  0  0  0  0  0  0  0
   -2.9536   -3.5721    0.2808 H   0  0  0  0  0  0  0  0  0  0  0  0
   -4.4713   -1.6402    0.1069 H   0  0  0  0  0  0  0  0  0  0  0  0
   -3.5317    0.6297   -0.1973 H   0  0  0  0  0  0  0  0  0  0  0  0
   -1.2564    0.9532   -0.3618 H   0  0  0  0  0  0  0  0  0  0  0  0
  1  2  1  0  0  0  0
  1 20  1  0  0  0  0
  1 21  1  0  0  0  0
  1 22  1  0  0  0  0
  3  2  1  1  0  0  0
  3  4  1  0  0  0  0
  3  5  1  0  0  0  0
  3 11  1  0  0  0  0
  4 23  1  0  0  0  0
  4 24  1  0  0  0  0
  4 25  1  0  0  0  0
  5 10  2  0  0  0  0
  5  6  1  0  0  0  0
  6  7  2  0  0  0  0
  6 26  1  0  0  0  0
  7  8  1  0  0  0  0
  7 27  1  0  0  0  0
  8  9  2  0  0  0  0
  8 28  1  0  0  0  0
  9 10  1  0  0  0  0
  9 29  1  0  0  0  0
 10 30  1  0  0  0  0
 11 12  1  0  0  0  0
 11 13  1  1  0  0  0
 11 14  1  0  0  0  0
 12 31  1  0  0  0  0
 12 32  1  0  0  0  0
 12 33  1  0  0  0  0
 13 34  1  0  0  0  0
 14 19  2  0  0  0  0
 14 15  1  0  0  0  0
 15 16  2  0  0  0  0
 15 35  1  0  0  0  0
 16 17  1  0  0  0  0
 16 36  1  0  0  0  0
 17 18  2  0  0  0  0
 17 37  1  0  0  0  0
 18 19  1  0  0  0  0
 18 38  1  0  0  0  0
 19 39  1  0  0  0  0
M  END
$$$$
