
 OpenBabel03202621322D

 20 19  0  0  1  0  0  0  0  0999 V2000
    0.8660    1.5000    0.0000 C   0  0  0  0  0  0  0  0  0  0  0  0
    0.0000    2.0000    0.0000 C   0  0  0  0  0  0  0  0  0  0  0  0
   -1.3393    1.1834    0.3572 C   0  0  1  0  0  0  0  0  0  0  0  0
   -2.6135    1.8511   -0.2264 C   0  0  0  0  0  0  0  0  0  0  0  0
   -3.6168    0.9748   -0.7704 O   0  0  0  0  0  0  0  0  0  0  0  0
   -4.5804    0.4897    0.0546 C   0  0  0  0  0  0  0  0  0  0  0  0
   -5.6999    0.1847   -0.3123 O   0  0  0  0  0  0  0  0  0  0  0  0
   -1.3573   -0.3225    0.1937 C   0  0  0  0  0  0  0  0  0  0  0  0
   -2.0522   -1.0733    0.8728 O   0  0  0  0  0  0  0  0  0  0  0  0
   -0.5753   -0.8251   -0.7614 O   0  0  0  0  0  0  0  0  0  0  0  0
    0.8368    1.0731   -1.0319 H   0  0  0  0  0  0  0  0  0  0  0  0
    1.5795    2.3621   -0.0408 H   0  0  0  0  0  0  0  0  0  0  0  0
    1.7926    0.9650    0.0000 H   0  0  0  0  0  0  0  0  0  0  0  0
   -0.2536    2.5945   -0.9000 H   0  0  0  0  0  0  0  0  0  0  0  0
   -0.0665    2.7917    0.7731 H   0  0  0  0  0  0  0  0  0  0  0  0
   -1.4269    1.2973    1.4511 H   0  0  0  0  0  0  0  0  0  0  0  0
   -3.0736    2.5031    0.5291 H   0  0  0  0  0  0  0  0  0  0  0  0
   -2.3509    2.5158   -1.0563 H   0  0  0  0  0  0  0  0  0  0  0  0
   -4.2195    0.3690    1.0881 H   0  0  0  0  0  0  0  0  0  0  0  0
   -0.6960   -1.7969   -0.6830 H   0  0  0  0  0  0  0  0  0  0  0  0
  1  2  1  0  0  0  0
  1 11  1  0  0  0  0
  1 12  1  0  0  0  0
  1 13  1  0  0  0  0
  2 14  1  0  0  0  0
  2 15  1  0  0  0  0
  3  2  1  0  0  0  0
  3  4  1  0  0  0  0
  3  8  1  0  0  0  0
  3 16  1  1  0  0  0
  4  5  1  0  0  0  0
  4 17  1  0  0  0  0
  4 18  1  0  0  0  0
  5  6  1  0  0  0  0
  6  7  2  0  0  0  0
  6 19  1  0  0  0  0
  8  9  2  0  0  0  0
  8 10  1  0  0  0  0
 10 20  1  0  0  0  0
M  END
$$$$
