
 OpenBabel03202621352D

 38 39  0  0  0  0  0  0  0  0999 V2000
   -1.5878   -0.8090    0.0000 C   0  0  0  0  0  0  0  0  0  0  0  0
   -1.0000    0.0000    0.0000 C   0  0  0  0  0  0  0  0  0  0  0  0
   -0.2567    0.7456    0.9078 C   0  0  0  0  0  0  0  0  0  0  0  0
    0.6005    1.5032    0.1477 N   0  0  0  0  0  0  0  0  0  0  0  0
    0.9960    2.8711    0.3960 C   0  0  0  0  0  0  0  0  0  0  0  0
   -0.0408    3.8347   -0.1806 C   0  0  0  0  0  0  0  0  0  0  0  0
    0.1431    5.0522   -0.1323 O   0  0  0  0  0  0  0  0  0  0  0  0
   -1.1866    3.2893   -0.7127 N   0  0  0  0  0  0  0  0  0  0  0  0
   -2.1004    2.8354    0.2104 C   0  0  0  0  0  0  0  0  0  0  0  0
   -2.0197    3.0656    1.4180 O   0  0  0  0  0  0  0  0  0  0  0  0
   -3.2230    2.2440   -0.3680 N   0  0  0  0  0  0  0  0  0  0  0  0
   -4.4811    2.8447   -0.1584 C   0  0  0  0  0  0  0  0  0  0  0  0
   -5.6962    2.5388    0.0000 C   0  0  0  0  0  0  0  0  0  0  0  0
   -5.6962    1.5388    0.0000 C   0  0  0  0  0  0  0  0  0  0  0  0
   -7.1293    3.1676    0.1509 C   0  0  0  0  0  0  0  0  0  0  0  0
   -7.3243    4.4771    0.1726 C   0  0  0  0  0  0  0  0  0  0  0  0
   -6.0932    4.9658    0.1277 C   0  0  0  0  0  0  0  0  0  0  0  0
   -4.8301    4.0388    0.0000 C   0  0  0  0  0  0  0  0  0  0  0  0
   -3.9641    4.5388    0.0000 C   0  0  0  0  0  0  0  0  0  0  0  0
    0.5351    1.1342   -1.1400 N   0  0  0  0  0  0  0  0  0  0  0  0
   -0.4983    0.3301   -1.2548 N   0  0  0  0  0  0  0  0  0  0  0  0
   -2.4259   -0.4231    0.6250 H   0  0  0  0  0  0  0  0  0  0  0  0
   -0.9610   -1.5033    0.6100 H   0  0  0  0  0  0  0  0  0  0  0  0
   -2.2167   -1.6746    0.0000 H   0  0  0  0  0  0  0  0  0  0  0  0
   -0.3041    0.8379    1.9860 H   0  0  0  0  0  0  0  0  0  0  0  0
    1.9604    3.0314   -0.0968 H   0  0  0  0  0  0  0  0  0  0  0  0
    1.0953    3.0194    1.4749 H   0  0  0  0  0  0  0  0  0  0  0  0
   -1.0211    2.5419   -1.3798 H   0  0  0  0  0  0  0  0  0  0  0  0
   -3.1879    1.2587   -0.5809 H   0  0  0  0  0  0  0  0  0  0  0  0
   -6.3908    1.3092   -0.8487 H   0  0  0  0  0  0  0  0  0  0  0  0
   -6.1078    1.3207    1.0195 H   0  0  0  0  0  0  0  0  0  0  0  0
   -5.6962    0.4688    0.0000 H   0  0  0  0  0  0  0  0  0  0  0  0
   -7.9840    2.4918    0.2371 H   0  0  0  0  0  0  0  0  0  0  0  0
   -8.2487    5.0131    0.2582 H   0  0  0  0  0  0  0  0  0  0  0  0
   -5.9351    6.0460    0.1839 H   0  0  0  0  0  0  0  0  0  0  0  0
   -4.0840    5.1900   -0.9059 H   0  0  0  0  0  0  0  0  0  0  0  0
   -4.0218    5.0884    0.9759 H   0  0  0  0  0  0  0  0  0  0  0  0
   -3.0375    5.0738    0.0000 H   0  0  0  0  0  0  0  0  0  0  0  0
  1  2  1  0  0  0  0
  1 22  1  0  0  0  0
  1 23  1  0  0  0  0
  1 24  1  0  0  0  0
  2 21  1  0  0  0  0
  2  3  2  0  0  0  0
  3  4  1  0  0  0  0
  3 25  1  0  0  0  0
  4  5  1  0  0  0  0
  4 20  1  0  0  0  0
  5  6  1  0  0  0  0
  5 26  1  0  0  0  0
  5 27  1  0  0  0  0
  6  7  2  0  0  0  0
  6  8  1  0  0  0  0
  8  9  1  0  0  0  0
  8 28  1  0  0  0  0
  9 10  2  0  0  0  0
  9 11  1  0  0  0  0
 11 12  1  0  0  0  0
 11 29  1  0  0  0  0
 12 18  2  0  0  0  0
 12 13  1  0  0  0  0
 13 14  1  0  0  0  0
 13 15  2  0  0  0  0
 14 30  1  0  0  0  0
 14 31  1  0  0  0  0
 14 32  1  0  0  0  0
 15 16  1  0  0  0  0
 15 33  1  0  0  0  0
 16 17  2  0  0  0  0
 16 34  1  0  0  0  0
 17 18  1  0  0  0  0
 17 35  1  0  0  0  0
 18 19  1  0  0  0  0
 19 36  1  0  0  0  0
 19 37  1  0  0  0  0
 19 38  1  0  0  0  0
 20 21  2  0  0  0  0
M  END
$$$$
