
 OpenBabel03202621362D

 25 25  0  0  0  0  0  0  0  0999 V2000
   -0.8660   -3.5000    0.0000 C   0  0  0  0  0  0  0  0  0  0  0  0
    0.0000   -3.0000    0.0000 S   0  0  0  0  0  0  0  0  0  0  0  0
    1.0024   -2.8439   -1.3892 C   0  0  0  0  0  0  0  0  0  0  0  0
    2.3942   -3.7059   -1.6628 S   0  0  0  0  0  0  0  0  0  0  0  0
    0.6213   -1.7729   -2.1770 N   0  0  0  0  0  0  0  0  0  0  0  0
    0.1326   -0.6501   -1.4764 C   0  0  0  0  0  0  0  0  0  0  0  0
   -1.2482   -0.4033   -1.4059 C   0  0  0  0  0  0  0  0  0  0  0  0
   -1.7564    0.5928   -0.5717 C   0  0  0  0  0  0  0  0  0  0  0  0
   -0.8660    1.5000    0.0000 C   0  0  0  0  0  0  0  0  0  0  0  0
   -0.8660    2.5000    0.0000 C   0  0  0  0  0  0  0  0  0  0  0  0
    0.5251    1.0707    0.0873 C   0  0  0  0  0  0  0  0  0  0  0  0
    1.6136    2.0185    0.5970 N   0  3  0  0  0  0  0  0  0  0  0  0
    2.7678    1.8154    0.1781 O   0  0  0  0  0  0  0  0  0  0  0  0
    1.2969    2.9457    1.3385 O   0  5  0  0  0  0  0  0  0  0  0  0
    1.0091   -0.0017   -0.6310 C   0  0  0  0  0  0  0  0  0  0  0  0
   -1.3090   -3.0758    0.9208 H   0  0  0  0  0  0  0  0  0  0  0  0
   -0.4886   -4.5142    0.2365 H   0  0  0  0  0  0  0  0  0  0  0  0
   -1.7926   -4.0350    0.0000 H   0  0  0  0  0  0  0  0  0  0  0  0
    0.0032   -2.0943   -2.9104 H   0  0  0  0  0  0  0  0  0  0  0  0
   -1.9427   -1.0400   -1.9500 H   0  0  0  0  0  0  0  0  0  0  0  0
   -2.8301    0.7906   -0.5940 H   0  0  0  0  0  0  0  0  0  0  0  0
   -0.9255    2.7085   -1.1004 H   0  0  0  0  0  0  0  0  0  0  0  0
   -1.8526    2.6895    0.4859 H   0  0  0  0  0  0  0  0  0  0  0  0
   -0.8660    3.5700    0.0000 H   0  0  0  0  0  0  0  0  0  0  0  0
    2.0649   -0.2840   -0.5979 H   0  0  0  0  0  0  0  0  0  0  0  0
  1  2  1  0  0  0  0
  1 16  1  0  0  0  0
  1 17  1  0  0  0  0
  1 18  1  0  0  0  0
  2  3  1  0  0  0  0
  3  4  2  0  0  0  0
  3  5  1  0  0  0  0
  5  6  1  0  0  0  0
  5 19  1  0  0  0  0
  6 15  2  0  0  0  0
  6  7  1  0  0  0  0
  7  8  2  0  0  0  0
  7 20  1  0  0  0  0
  8  9  1  0  0  0  0
  8 21  1  0  0  0  0
  9 10  1  0  0  0  0
  9 11  2  0  0  0  0
 10 22  1  0  0  0  0
 10 23  1  0  0  0  0
 10 24  1  0  0  0  0
 11 12  1  0  0  0  0
 11 15  1  0  0  0  0
 12 13  2  0  0  0  0
 12 14  1  0  0  0  0
 15 25  1  0  0  0  0
M  CHG  2  12   1  14  -1
M  END
$$$$
