
 OpenBabel03202621302D

 25 24  0  0  0  0  0  0  0  0999 V2000
    2.5981    0.5000    0.0000 C   0  0  0  0  0  0  0  0  0  0  0  0
    2.5981    1.5000    0.0000 C   0  0  0  0  0  0  0  0  0  0  0  0
    1.8824    2.5061   -0.7013 C   0  0  0  0  0  0  0  0  0  0  0  0
    0.7145    1.8259   -0.9888 N   0  0  0  0  0  0  0  0  0  0  0  0
   -0.4390    2.5119   -1.3987 C   0  0  0  0  0  0  0  0  0  0  0  0
   -1.5906    2.1129   -1.4625 O   0  0  0  0  0  0  0  0  0  0  0  0
    0.8660    0.5000    0.0000 C   0  0  0  0  0  0  0  0  0  0  0  0
    1.3660   -0.3660    0.0000 C   0  0  0  0  0  0  0  0  0  0  0  0
    1.8660    0.5000    0.0000 C   0  0  0  0  0  0  0  0  0  0  0  0
    0.0000    0.0000    0.0000 C   0  0  0  0  0  0  0  0  0  0  0  0
    3.6868    0.2610    1.0445 H   0  0  0  0  0  0  0  0  0  0  0  0
    3.3058    0.3114   -1.2974 H   0  0  0  0  0  0  0  0  0  0  0  0
    2.5981   -0.5700    0.0000 H   0  0  0  0  0  0  0  0  0  0  0  0
    3.4478    2.1171    0.4369 H   0  0  0  0  0  0  0  0  0  0  0  0
    2.0051    3.5729   -0.7555 H   0  0  0  0  0  0  0  0  0  0  0  0
   -0.2125    3.5600   -1.6575 H   0  0  0  0  0  0  0  0  0  0  0  0
    1.1243   -0.9465   -1.1379 H   0  0  0  0  0  0  0  0  0  0  0  0
    1.0200   -1.2037    0.9287 H   0  0  0  0  0  0  0  0  0  0  0  0
    1.9010   -1.2926    0.0000 H   0  0  0  0  0  0  0  0  0  0  0  0
    2.0072    0.1245    1.5254 H   0  0  0  0  0  0  0  0  0  0  0  0
    1.3752    1.3467    1.1697 H   0  0  0  0  0  0  0  0  0  0  0  0
    2.9360    0.5000    0.0000 H   0  0  0  0  0  0  0  0  0  0  0  0
   -0.7758    0.7980   -0.0292 H   0  0  0  0  0  0  0  0  0  0  0  0
   -0.2508   -0.0756    1.1498 H   0  0  0  0  0  0  0  0  0  0  0  0
   -0.9266   -0.5350    0.0000 H   0  0  0  0  0  0  0  0  0  0  0  0
  1  2  1  0  0  0  0
  1 11  1  0  0  0  0
  1 12  1  0  0  0  0
  1 13  1  0  0  0  0
  2  3  2  3  0  0  0
  2 14  1  0  0  0  0
  3  4  1  0  0  0  0
  3 15  1  0  0  0  0
  4  5  1  0  0  0  0
  4  7  1  0  0  0  0
  5  6  2  0  0  0  0
  5 16  1  0  0  0  0
  7  8  1  0  0  0  0
  7  9  1  0  0  0  0
  7 10  1  0  0  0  0
  8 17  1  0  0  0  0
  8 18  1  0  0  0  0
  8 19  1  0  0  0  0
  9 20  1  0  0  0  0
  9 21  1  0  0  0  0
  9 22  1  0  0  0  0
 10 23  1  0  0  0  0
 10 24  1  0  0  0  0
 10 25  1  0  0  0  0
M  END
$$$$
