
 OpenBabel03202621312D

 22 22  0  0  0  0  0  0  0  0999 V2000
   -0.8660   -3.5000    0.0000 C   0  0  0  0  0  0  0  0  0  0  0  0
    0.0000   -3.0000    0.0000 S   0  0  0  0  0  0  0  0  0  0  0  0
    0.4686   -1.3531   -0.1272 C   0  0  0  0  0  0  0  0  0  0  0  0
    2.1129   -1.0553   -0.2456 S   0  0  0  0  0  0  0  0  0  0  0  0
   -0.5865   -0.4758   -0.0950 N   0  0  0  0  0  0  0  0  0  0  0  0
   -0.6426    0.9389   -0.0735 C   0  0  0  0  0  0  0  0  0  0  0  0
   -1.9216    1.5091   -0.0481 C   0  0  0  0  0  0  0  0  0  0  0  0
   -2.0986    2.9010   -0.0035 C   0  0  0  0  0  0  0  0  0  0  0  0
   -0.9994    3.7721    0.0148 C   0  0  0  0  0  0  0  0  0  0  0  0
   -1.0400    5.1786    0.0734 N   0  0  0  0  0  0  0  0  0  0  0  0
   -2.0871    5.7033    0.0209 C   0  0  0  0  0  0  0  0  0  0  0  0
   -3.4832    6.4713   -0.0423 S   0  0  0  0  0  0  0  0  0  0  0  0
    0.2695    3.1949   -0.0120 C   0  0  0  0  0  0  0  0  0  0  0  0
    0.4485    1.8043   -0.0543 C   0  0  0  0  0  0  0  0  0  0  0  0
   -1.3031   -3.1128    0.9416 H   0  0  0  0  0  0  0  0  0  0  0  0
   -0.4770   -4.5164    0.1995 H   0  0  0  0  0  0  0  0  0  0  0  0
   -1.7926   -4.0350    0.0000 H   0  0  0  0  0  0  0  0  0  0  0  0
   -1.4874   -0.9371   -0.0580 H   0  0  0  0  0  0  0  0  0  0  0  0
   -2.8082    0.8814   -0.0582 H   0  0  0  0  0  0  0  0  0  0  0  0
   -3.1187    3.2752    0.0214 H   0  0  0  0  0  0  0  0  0  0  0  0
    1.1501    3.8361    0.0064 H   0  0  0  0  0  0  0  0  0  0  0  0
    1.4750    1.4672   -0.0593 H   0  0  0  0  0  0  0  0  0  0  0  0
  1  2  1  0  0  0  0
  1 15  1  0  0  0  0
  1 16  1  0  0  0  0
  1 17  1  0  0  0  0
  2  3  1  0  0  0  0
  3  4  2  0  0  0  0
  3  5  1  0  0  0  0
  5  6  1  0  0  0  0
  5 18  1  0  0  0  0
  6 14  2  0  0  0  0
  6  7  1  0  0  0  0
  7  8  2  0  0  0  0
  7 19  1  0  0  0  0
  8  9  1  0  0  0  0
  8 20  1  0  0  0  0
  9 10  1  0  0  0  0
  9 13  2  0  0  0  0
 10 11  2  0  0  0  0
 11 12  2  0  0  0  0
 13 14  1  0  0  0  0
 13 21  1  0  0  0  0
 14 22  1  0  0  0  0
M  END
$$$$
