
 OpenBabel03202621352D

 33 35  0  0  0  0  0  0  0  0999 V2000
   -1.5878   -0.8090    0.0000 C   0  0  0  0  0  0  0  0  0  0  0  0
   -1.0000    0.0000    0.0000 C   0  0  0  0  0  0  0  0  0  0  0  0
   -1.3070    1.2685    0.4642 C   0  0  0  0  0  0  0  0  0  0  0  0
   -0.4056    2.1324   -0.1147 N   0  0  0  0  0  0  0  0  0  0  0  0
   -0.3603    3.5356    0.0487 C   0  0  0  0  0  0  0  0  0  0  0  0
   -1.6105    4.1931   -0.0354 C   0  0  0  0  0  0  0  0  0  0  0  0
   -1.6879    5.5686    0.1099 C   0  0  0  0  0  0  0  0  0  0  0  0
   -0.5295    6.2804    0.3812 C   0  0  0  0  0  0  0  0  0  0  0  0
    0.7118    5.6259    0.4986 C   0  0  0  0  0  0  0  0  0  0  0  0
    0.8595    4.2365    0.3081 C   0  0  0  0  0  0  0  0  0  0  0  0
    2.2038    3.5589    0.4392 C   0  0  0  0  0  0  0  0  0  0  0  0
    2.2724    2.3050    1.0901 C   0  0  0  0  0  0  0  0  0  0  0  0
    3.3572    1.4283    0.9479 C   0  0  0  0  0  0  0  0  0  0  0  0
    4.4934    1.8315    0.2655 C   0  0  0  0  0  0  0  0  0  0  0  0
    4.5601    3.1319   -0.2116 C   0  0  0  0  0  0  0  0  0  0  0  0
    3.4337    3.9832   -0.1169 C   0  0  0  0  0  0  0  0  0  0  0  0
    3.6678    5.3478   -0.5564 N   0  3  0  0  0  0  0  0  0  0  0  0
    3.0159    5.7711   -1.5212 O   0  0  0  0  0  0  0  0  0  0  0  0
    4.5345    5.9861    0.0559 O   0  5  0  0  0  0  0  0  0  0  0  0
    0.4541    1.4364   -0.8772 N   0  0  0  0  0  0  0  0  0  0  0  0
    0.1405    0.1539   -0.7811 N   0  0  0  0  0  0  0  0  0  0  0  0
   -2.0082   -0.7358   -1.0326 H   0  0  0  0  0  0  0  0  0  0  0  0
   -0.8189   -1.6163    0.0504 H   0  0  0  0  0  0  0  0  0  0  0  0
   -2.2167   -1.6746    0.0000 H   0  0  0  0  0  0  0  0  0  0  0  0
   -2.1216    1.6322    1.0745 H   0  0  0  0  0  0  0  0  0  0  0  0
   -2.5234    3.6466   -0.2701 H   0  0  0  0  0  0  0  0  0  0  0  0
   -2.6437    6.0794    0.0071 H   0  0  0  0  0  0  0  0  0  0  0  0
   -0.5831    7.3609    0.5020 H   0  0  0  0  0  0  0  0  0  0  0  0
    1.5649    6.2510    0.7495 H   0  0  0  0  0  0  0  0  0  0  0  0
    1.4158    1.9207    1.6417 H   0  0  0  0  0  0  0  0  0  0  0  0
    3.2790    0.4139    1.3313 H   0  0  0  0  0  0  0  0  0  0  0  0
    5.3224    1.1427    0.1252 H   0  0  0  0  0  0  0  0  0  0  0  0
    5.4860    3.4707   -0.6760 H   0  0  0  0  0  0  0  0  0  0  0  0
  1  2  1  0  0  0  0
  1 22  1  0  0  0  0
  1 23  1  0  0  0  0
  1 24  1  0  0  0  0
  2 21  1  0  0  0  0
  2  3  2  0  0  0  0
  3  4  1  0  0  0  0
  3 25  1  0  0  0  0
  4  5  1  0  0  0  0
  4 20  1  0  0  0  0
  5 10  2  0  0  0  0
  5  6  1  0  0  0  0
  6  7  2  0  0  0  0
  6 26  1  0  0  0  0
  7  8  1  0  0  0  0
  7 27  1  0  0  0  0
  8  9  2  0  0  0  0
  8 28  1  0  0  0  0
  9 10  1  0  0  0  0
  9 29  1  0  0  0  0
 10 11  1  0  0  0  0
 11 16  2  0  0  0  0
 11 12  1  0  0  0  0
 12 13  2  0  0  0  0
 12 30  1  0  0  0  0
 13 14  1  0  0  0  0
 13 31  1  0  0  0  0
 14 15  2  0  0  0  0
 14 32  1  0  0  0  0
 15 16  1  0  0  0  0
 15 33  1  0  0  0  0
 16 17  1  0  0  0  0
 17 18  2  0  0  0  0
 17 19  1  0  0  0  0
 20 21  2  0  0  0  0
M  CHG  2  17   1  19  -1
M  END
$$$$
