
 OpenBabel03202621312D

 18 17  0  0  1  0  0  0  0  0999 V2000
    0.8660   -0.5000    0.0000 C   0  0  0  0  0  0  0  0  0  0  0  0
    1.7321    0.0000    0.0000 S   0  0  0  0  0  0  0  0  0  0  0  0
    2.2832    1.0576   -1.1669 C   0  0  0  0  0  0  0  0  0  0  0  0
    3.3524    1.1047   -1.7624 O   0  0  0  0  0  0  0  0  0  0  0  0
    1.2921    2.0379   -0.8002 C   0  0  2  0  0  0  0  0  0  0  0  0
    0.8183    3.1028   -2.1466 Cl  0  0  0  0  0  0  0  0  0  0  0  0
    0.0000    1.0000    0.0000 C   0  0  1  0  0  0  0  0  0  0  0  0
   -0.8660    1.5000    0.0000 C   0  0  0  0  0  0  0  0  0  0  0  0
    0.0000    0.0000    0.0000 O   0  0  0  0  0  0  0  0  0  0  0  0
    1.1325   -1.2329   -0.8760 H   0  0  0  0  0  0  0  0  0  0  0  0
    1.1523   -1.2251    0.8723 H   0  0  0  0  0  0  0  0  0  0  0  0
   -0.0607   -1.0350    0.0000 H   0  0  0  0  0  0  0  0  0  0  0  0
    1.7338    2.6632   -0.0233 H   0  0  0  0  0  0  0  0  0  0  0  0
    0.0000    2.0700    0.0000 H   0  0  0  0  0  0  0  0  0  0  0  0
   -1.2385    1.4040    1.0797 H   0  0  0  0  0  0  0  0  0  0  0  0
   -1.5050    0.9604   -0.7737 H   0  0  0  0  0  0  0  0  0  0  0  0
   -1.7926    2.0350    0.0000 H   0  0  0  0  0  0  0  0  0  0  0  0
   -0.7102   -0.1722    0.8185 H   0  0  0  0  0  0  0  0  0  0  0  0
  1  2  1  0  0  0  0
  1 10  1  0  0  0  0
  1 11  1  0  0  0  0
  1 12  1  0  0  0  0
  2  3  1  0  0  0  0
  3  4  2  0  0  0  0
  3  5  1  0  0  0  0
  5  6  1  0  0  0  0
  5  7  1  0  0  0  0
  5 13  1  6  0  0  0
  7  8  1  0  0  0  0
  7  9  1  0  0  0  0
  7 14  1  1  0  0  0
  8 15  1  0  0  0  0
  8 16  1  0  0  0  0
  8 17  1  0  0  0  0
  9 18  1  0  0  0  0
M  END
$$$$
