
 OpenBabel03202621322D

 33 34  0  0  1  0  0  0  0  0999 V2000
    0.2788   -1.7601    0.0000 C   0  0  0  0  0  0  0  0  0  0  0  0
   -0.3090   -0.9511    0.0000 C   0  0  0  0  0  0  0  0  0  0  0  0
   -1.7412   -0.9830   -0.1652 C   0  0  0  0  0  0  0  0  0  0  0  0
   -2.1577   -0.1538   -1.2648 C   0  0  0  0  0  0  0  0  0  0  0  0
   -1.1828    0.8297   -1.2314 C   0  0  0  0  0  0  0  0  0  0  0  0
   -0.8090    1.5878    0.0000 C   0  0  2  0  0  0  0  0  0  0  0  0
    0.0570    2.0878    0.0000 C   0  0  0  0  0  0  0  0  0  0  0  0
   -1.9682    2.6076    0.0307 N   0  0  0  0  0  0  0  0  0  0  0  0
   -3.2799    2.4926    0.4690 C   0  0  0  0  0  0  0  0  0  0  0  0
   -3.8603    3.5267    0.7755 O   0  0  0  0  0  0  0  0  0  0  0  0
   -3.7178    1.2076    0.5991 O   0  0  0  0  0  0  0  0  0  0  0  0
   -5.0092    0.5250    0.5387 C   0  0  0  0  0  0  0  0  0  0  0  0
   -5.0140   -0.7491    0.9790 C   0  0  0  0  0  0  0  0  0  0  0  0
   -6.0139   -1.6729    0.8577 O   0  0  0  0  0  0  0  0  0  0  0  0
   -7.1892   -1.2475    0.1519 C   0  0  0  0  0  0  0  0  0  0  0  0
   -7.2214    0.1747   -0.2941 C   0  0  0  0  0  0  0  0  0  0  0  0
   -6.1895    1.0340   -0.1697 C   0  0  0  0  0  0  0  0  0  0  0  0
   -6.1068    2.2132   -0.5948 O   0  5  0  0  0  0  0  0  0  0  0  0
    0.1055   -0.1820   -1.7936 S   0  0  0  0  0  0  0  0  0  0  0  0
   -0.2483   -2.4033    0.7501 H   0  0  0  0  0  0  0  0  0  0  0  0
    1.1363   -1.3256    0.5701 H   0  0  0  0  0  0  0  0  0  0  0  0
    0.9077   -2.6257    0.0000 H   0  0  0  0  0  0  0  0  0  0  0  0
   -2.3685   -1.7501    0.2742 H   0  0  0  0  0  0  0  0  0  0  0  0
   -3.1726   -0.0355   -1.6304 H   0  0  0  0  0  0  0  0  0  0  0  0
   -1.0836    1.0484    0.9245 H   0  0  0  0  0  0  0  0  0  0  0  0
    0.7621    1.3004    0.3670 H   0  0  0  0  0  0  0  0  0  0  0  0
   -0.0575    2.7480    0.9055 H   0  0  0  0  0  0  0  0  0  0  0  0
    0.9836    2.6228    0.0000 H   0  0  0  0  0  0  0  0  0  0  0  0
   -1.7644    3.5773   -0.1640 H   0  0  0  0  0  0  0  0  0  0  0  0
   -4.1589   -1.1960    1.4585 H   0  0  0  0  0  0  0  0  0  0  0  0
   -7.2966   -1.8947   -0.7273 H   0  0  0  0  0  0  0  0  0  0  0  0
   -8.0420   -1.4503    0.8045 H   0  0  0  0  0  0  0  0  0  0  0  0
   -8.1225    0.5169   -0.7910 H   0  0  0  0  0  0  0  0  0  0  0  0
  1  2  1  0  0  0  0
  1 20  1  0  0  0  0
  1 21  1  0  0  0  0
  1 22  1  0  0  0  0
  2 19  1  0  0  0  0
  2  3  2  0  0  0  0
  3  4  1  0  0  0  0
  3 23  1  0  0  0  0
  4  5  2  0  0  0  0
  4 24  1  0  0  0  0
  5  6  1  0  0  0  0
  5 19  1  0  0  0  0
  6  7  1  0  0  0  0
  6  8  1  0  0  0  0
  6 25  1  6  0  0  0
  7 26  1  0  0  0  0
  7 27  1  0  0  0  0
  7 28  1  0  0  0  0
  8  9  1  0  0  0  0
  8 29  1  0  0  0  0
  9 10  2  0  0  0  0
  9 11  1  0  0  0  0
 11 12  1  0  0  0  0
 12 17  1  0  0  0  0
 12 13  2  0  0  0  0
 13 14  1  0  0  0  0
 13 30  1  0  0  0  0
 14 15  1  0  0  0  0
 15 16  1  0  0  0  0
 15 31  1  0  0  0  0
 15 32  1  0  0  0  0
 16 17  2  0  0  0  0
 16 33  1  0  0  0  0
 17 18  1  0  0  0  0
M  CHG  1  18  -1
M  END
$$$$
