
 OpenBabel03202621302D

 12 11  0  0  0  0  0  0  0  0999 V2000
    3.0000    0.0000    0.0000 C   0  0  0  0  0  0  0  0  0  0  0  0
    2.5000    0.8660    0.0000 S   0  0  0  0  0  0  0  0  0  0  0  0
    0.7230    0.3981   -0.0181 C   0  0  0  0  0  0  0  0  0  0  0  0
    0.3893   -1.0879   -0.0456 C   0  0  0  0  0  0  0  0  0  0  0  0
   -0.9659   -1.2254   -0.0581 F   0  0  0  0  0  0  0  0  0  0  0  0
    3.1919   -0.0928    1.0875 H   0  0  0  0  0  0  0  0  0  0  0  0
    3.9370    0.3434   -0.4781 H   0  0  0  0  0  0  0  0  0  0  0  0
    3.5350   -0.9266    0.0000 H   0  0  0  0  0  0  0  0  0  0  0  0
    0.2522    0.8529    0.8609 H   0  0  0  0  0  0  0  0  0  0  0  0
    0.2615    0.8853   -0.8843 H   0  0  0  0  0  0  0  0  0  0  0  0
    0.7770   -1.5745   -0.9456 H   0  0  0  0  0  0  0  0  0  0  0  0
    0.7651   -1.6067    0.8395 H   0  0  0  0  0  0  0  0  0  0  0  0
  1  2  1  0  0  0  0
  1  6  1  0  0  0  0
  1  7  1  0  0  0  0
  1  8  1  0  0  0  0
  2  3  1  0  0  0  0
  3  4  1  0  0  0  0
  3  9  1  0  0  0  0
  3 10  1  0  0  0  0
  4  5  1  0  0  0  0
  4 11  1  0  0  0  0
  4 12  1  0  0  0  0
M  END
$$$$
