
 OpenBabel03202621362D

 26 27  0  0  1  0  0  0  0  0999 V2000
    3.0196    3.0457    0.7325 O   0  0  0  0  0  0  0  0  0  0  0  0
    3.1114    1.8859    0.3308 C   0  0  0  0  0  0  0  0  0  0  0  0
    4.4776    1.2679    0.1032 C   0  0  0  0  0  0  0  0  0  0  0  0
    4.3928   -0.2408    0.2485 C   0  0  0  0  0  0  0  0  0  0  0  0
    3.4060   -0.5539    1.2243 O   0  0  0  0  0  0  0  0  0  0  0  0
    2.0820   -0.3223    0.6869 C   0  0  0  0  0  0  0  0  0  0  0  0
    1.9300    1.0049   -0.0916 C   0  0  2  0  0  0  0  0  0  0  0  0
    0.6853    1.6704    0.0942 O   0  0  0  0  0  0  0  0  0  0  0  0
   -0.5124    1.0485   -0.2603 C   0  0  0  0  0  0  0  0  0  0  0  0
   -1.6505    1.6192    0.1784 C   0  0  0  0  0  0  0  0  0  0  0  0
   -2.9049    1.0620    0.1250 O   0  0  0  0  0  0  0  0  0  0  0  0
   -2.8718   -0.3771    0.0505 C   0  0  0  0  0  0  0  0  0  0  0  0
   -1.7452   -0.9281   -0.7565 C   0  0  0  0  0  0  0  0  0  0  0  0
   -0.6220   -0.2291   -1.0042 C   0  0  0  0  0  0  0  0  0  0  0  0
    0.2975   -0.4983   -1.8154 O   0  5  0  0  0  0  0  0  0  0  0  0
    4.8495    1.5401   -0.8862 H   0  0  0  0  0  0  0  0  0  0  0  0
    5.1605    1.6713    0.8607 H   0  0  0  0  0  0  0  0  0  0  0  0
    5.3529   -0.6434    0.5856 H   0  0  0  0  0  0  0  0  0  0  0  0
    4.1529   -0.7323   -0.7030 H   0  0  0  0  0  0  0  0  0  0  0  0
    1.3732   -0.3902    1.5190 H   0  0  0  0  0  0  0  0  0  0  0  0
    1.8822   -1.1789    0.0376 H   0  0  0  0  0  0  0  0  0  0  0  0
    2.1178    0.8920   -1.1611 H   0  0  0  0  0  0  0  0  0  0  0  0
   -1.6808    2.5963    0.6468 H   0  0  0  0  0  0  0  0  0  0  0  0
   -3.8201   -0.6950   -0.4011 H   0  0  0  0  0  0  0  0  0  0  0  0
   -2.8447   -0.7743    1.0712 H   0  0  0  0  0  0  0  0  0  0  0  0
   -1.8744   -1.8998   -1.2196 H   0  0  0  0  0  0  0  0  0  0  0  0
  1  2  2  0  0  0  0
  2  7  1  0  0  0  0
  2  3  1  0  0  0  0
  3  4  1  0  0  0  0
  3 16  1  0  0  0  0
  3 17  1  0  0  0  0
  4  5  1  0  0  0  0
  4 18  1  0  0  0  0
  4 19  1  0  0  0  0
  5  6  1  0  0  0  0
  6  7  1  0  0  0  0
  6 20  1  0  0  0  0
  6 21  1  0  0  0  0
  7  8  1  0  0  0  0
  7 22  1  1  0  0  0
  8  9  1  0  0  0  0
  9 14  1  0  0  0  0
  9 10  2  0  0  0  0
 10 11  1  0  0  0  0
 10 23  1  0  0  0  0
 11 12  1  0  0  0  0
 12 13  1  0  0  0  0
 12 24  1  0  0  0  0
 12 25  1  0  0  0  0
 13 14  2  0  0  0  0
 13 26  1  0  0  0  0
 14 15  1  0  0  0  0
M  CHG  1  15  -1
M  END
$$$$
