
 OpenBabel03202621282D

 33 34  0  0  1  0  0  0  0  0999 V2000
   -0.9428   -4.3661    0.0000 C   0  0  0  0  0  0  0  0  0  0  0  0
   -0.1015   -3.8804    0.0000 C   0  0  0  0  0  0  0  0  0  0  0  0
    0.7397   -4.3661    0.0000 O   0  0  0  0  0  0  0  0  0  0  0  0
   -0.1015   -2.9090    0.0000 C   0  0  0  0  0  0  0  0  0  0  0  0
   -0.9428   -2.4232    0.0000 C   0  0  0  0  0  0  0  0  0  0  0  0
   -1.7841   -2.9090    0.0000 O   0  0  0  0  0  0  0  0  0  0  0  0
   -0.9428   -1.4518    0.0000 C   0  0  1  0  0  0  0  0  0  0  0  0
   -2.6254   -0.4804    0.0000 C   0  0  0  0  0  0  0  0  0  0  0  0
   -2.6254    0.4910    0.0000 O   0  0  0  0  0  0  0  0  0  0  0  0
   -3.4667   -0.9661    0.0000 C   0  0  2  0  0  0  0  0  0  0  0  0
   -3.4667   -1.9375    0.0000 C   0  0  0  0  0  0  0  0  0  0  0  0
   -4.3080   -2.4232    0.0000 C   0  0  0  0  0  0  0  0  0  0  0  0
   -4.3080   -3.3947    0.0000 O   0  0  0  0  0  0  0  0  0  0  0  0
   -4.3080   -0.4804    0.0000 C   0  0  0  0  0  0  0  0  0  0  0  0
   -5.1492   -0.9661    0.0000 O   0  0  0  0  0  0  0  0  0  0  0  0
   -4.3080    0.4910    0.0000 C   0  0  0  0  0  0  0  0  0  0  0  0
   -3.4667    0.9768    0.0000 C   0  0  0  0  0  0  0  0  0  0  0  0
   -3.4667    1.9482    0.0000 C   0  0  0  0  0  0  0  0  0  0  0  0
   -4.3080    2.4339    0.0000 C   0  0  0  0  0  0  0  0  0  0  0  0
   -5.1492    1.9482    0.0000 C   0  0  0  0  0  0  0  0  0  0  0  0
   -5.1492    0.9768    0.0000 C   0  0  0  0  0  0  0  0  0  0  0  0
   -5.9905    0.4910    0.0000 O   0  0  0  0  0  0  0  0  0  0  0  0
   -0.1015   -0.9661    0.0000 N   0  0  0  0  0  0  0  0  0  0  0  0
    0.7859   -1.3612    0.0000 N   0  0  0  0  0  0  0  0  0  0  0  0
    1.4359   -0.6393    0.0000 N   0  0  0  0  0  0  0  0  0  0  0  0
    0.9502    0.2020    0.0000 N   0  0  0  0  0  0  0  0  0  0  0  0
    0.0000   -0.0000    0.0000 C   0  0  0  0  0  0  0  0  0  0  0  0
   -0.7219    0.6500    0.0000 C   0  0  2  0  0  0  0  0  0  0  0  0
   -1.6458    0.3498    0.0000 N   0  0  0  0  0  0  0  0  0  0  0  0
   -0.5199    1.6002    0.0000 C   0  0  0  0  0  0  0  0  0  0  0  0
   -1.2419    2.2502    0.0000 C   0  0  0  0  0  0  0  0  0  0  0  0
   -2.1657    1.9500    0.0000 C   0  0  0  0  0  0  0  0  0  0  0  0
   -1.0399    3.2004    0.0000 C   0  0  0  0  0  0  0  0  0  0  0  0
  1  2  1  0  0  0  0
  2  3  2  0  0  0  0
  2  4  1  0  0  0  0
  4  5  1  0  0  0  0
  5  6  2  0  0  0  0
  7  5  1  1  0  0  0
  7  8  1  0  0  0  0
  7 23  1  0  0  0  0
  8  9  2  0  0  0  0
  8 10  1  0  0  0  0
 10 11  1  6  0  0  0
 10 14  1  0  0  0  0
 11 12  1  0  0  0  0
 12 13  1  0  0  0  0
 14 15  2  0  0  0  0
 14 16  1  0  0  0  0
 16 21  2  0  0  0  0
 16 17  1  0  0  0  0
 17 18  2  0  0  0  0
 18 19  1  0  0  0  0
 19 20  2  0  0  0  0
 20 21  1  0  0  0  0
 21 22  1  0  0  0  0
 23 27  1  0  0  0  0
 23 24  1  0  0  0  0
 24 25  2  0  0  0  0
 25 26  1  0  0  0  0
 26 27  2  0  0  0  0
 27 28  1  0  0  0  0
 28 29  1  6  0  0  0
 28 30  1  0  0  0  0
 30 31  1  0  0  0  0
 31 32  1  0  0  0  0
 31 33  1  0  0  0  0
M  END
$$$$
