
 OpenBabel03202621402D

 52 53  0  0  1  0  0  0  0  0999 V2000
   -3.4641    5.0000    0.0000 C   0  0  0  0  0  0  0  0  0  0  0  0
   -4.3301    4.5000    0.0000 C   0  0  0  0  0  0  0  0  0  0  0  0
   -5.3601    4.9618    0.5474 O   0  0  0  0  0  0  0  0  0  0  0  0
   -4.6211    3.2752   -0.7568 C   0  0  0  0  0  0  0  0  0  0  0  0
   -3.3925    2.4473   -0.8291 C   0  0  0  0  0  0  0  0  0  0  0  0
   -2.5312    2.7278   -1.6579 O   0  0  0  0  0  0  0  0  0  0  0  0
   -3.3932    1.2331    0.0414 C   0  0  2  0  0  0  0  0  0  0  0  0
   -4.4424    1.2444    1.0065 O   0  0  0  0  0  0  0  0  0  0  0  0
   -2.2246    0.7109    0.8367 C   0  0  0  0  0  0  0  0  0  0  0  0
   -1.6562    1.4361    1.6566 O   0  0  0  0  0  0  0  0  0  0  0  0
   -1.8670   -0.7972    0.6368 C   0  0  2  0  0  0  0  0  0  0  0  0
   -3.2344   -1.5052    0.2739 C   0  0  0  0  0  0  0  0  0  0  0  0
   -3.6543   -2.9566    0.1470 C   0  0  0  0  0  0  0  0  0  0  0  0
   -5.1019   -3.2107   -0.0949 O   0  0  0  0  0  0  0  0  0  0  0  0
   -6.1511   -2.3329   -0.2021 C   0  0  0  0  0  0  0  0  0  0  0  0
   -7.4329   -2.8323    0.0803 C   0  0  0  0  0  0  0  0  0  0  0  0
   -8.5912   -2.0005    0.0907 C   0  0  0  0  0  0  0  0  0  0  0  0
   -8.4709   -0.6295   -0.1333 C   0  0  0  0  0  0  0  0  0  0  0  0
   -9.6099    0.3760   -0.0697 C   0  0  0  0  0  0  0  0  0  0  0  0
   -9.3263    1.5571   -0.2098 O   0  0  0  0  0  0  0  0  0  0  0  0
  -11.2376   -0.1938    0.1983 Cl  0  0  0  0  0  0  0  0  0  0  0  0
   -7.2456   -0.1520   -0.5330 C   0  0  0  0  0  0  0  0  0  0  0  0
   -6.1510   -1.0200   -0.6474 C   0  0  0  0  0  0  0  0  0  0  0  0
   -5.1277   -0.5103   -1.3205 F   0  0  0  0  0  0  0  0  0  0  0  0
   -0.7888   -0.9325   -0.4532 C   0  0  0  0  0  0  0  0  0  0  0  0
   -0.9531   -1.7368   -1.3762 O   0  0  0  0  0  0  0  0  0  0  0  0
    0.4243   -0.0065   -0.4110 C   0  0  0  0  0  0  0  0  0  0  0  0
    0.2034    1.3685   -0.6186 C   0  0  0  0  0  0  0  0  0  0  0  0
    1.1832    2.3335   -0.4043 C   0  0  0  0  0  0  0  0  0  0  0  0
    2.4557    1.9059   -0.0985 C   0  0  0  0  0  0  0  0  0  0  0  0
    2.7161    0.5298   -0.0210 C   0  0  0  0  0  0  0  0  0  0  0  0
    1.7236   -0.4837   -0.1387 C   0  0  0  0  0  0  0  0  0  0  0  0
    2.0298   -1.7125    0.0243 O   0  5  0  0  0  0  0  0  0  0  0  0
   -3.4850    5.4139    1.0380 H   0  0  0  0  0  0  0  0  0  0  0  0
   -3.7409    5.7449   -0.7834 H   0  0  0  0  0  0  0  0  0  0  0  0
   -2.5375    5.5350    0.0000 H   0  0  0  0  0  0  0  0  0  0  0  0
   -5.0049    3.4997   -1.7554 H   0  0  0  0  0  0  0  0  0  0  0  0
   -5.4399    2.7558   -0.2470 H   0  0  0  0  0  0  0  0  0  0  0  0
   -3.5882    0.5406   -0.7569 H   0  0  0  0  0  0  0  0  0  0  0  0
   -5.2118    0.8059    0.6189 H   0  0  0  0  0  0  0  0  0  0  0  0
   -1.4934   -1.1877    1.5879 H   0  0  0  0  0  0  0  0  0  0  0  0
   -3.9881   -1.0753    0.9366 H   0  0  0  0  0  0  0  0  0  0  0  0
   -3.3706   -1.2273   -0.7667 H   0  0  0  0  0  0  0  0  0  0  0  0
   -3.1336   -3.4248   -0.6952 H   0  0  0  0  0  0  0  0  0  0  0  0
   -3.3881   -3.5146    1.0494 H   0  0  0  0  0  0  0  0  0  0  0  0
   -7.5527   -3.8978    0.2766 H   0  0  0  0  0  0  0  0  0  0  0  0
   -9.5590   -2.4613    0.2861 H   0  0  0  0  0  0  0  0  0  0  0  0
   -7.1099    0.8921   -0.8030 H   0  0  0  0  0  0  0  0  0  0  0  0
   -0.7621    1.7296   -0.9238 H   0  0  0  0  0  0  0  0  0  0  0  0
    0.9446    3.3910   -0.4637 H   0  0  0  0  0  0  0  0  0  0  0  0
    3.2521    2.6212    0.0750 H   0  0  0  0  0  0  0  0  0  0  0  0
    3.7440    0.2205    0.1705 H   0  0  0  0  0  0  0  0  0  0  0  0
  1  2  1  0  0  0  0
  1 34  1  0  0  0  0
  1 35  1  0  0  0  0
  1 36  1  0  0  0  0
  2  3  2  0  0  0  0
  2  4  1  0  0  0  0
  4  5  1  0  0  0  0
  4 37  1  0  0  0  0
  4 38  1  0  0  0  0
  5  6  2  0  0  0  0
  5  7  1  0  0  0  0
  7  8  1  0  0  0  0
  7  9  1  0  0  0  0
  7 39  1  6  0  0  0
  8 40  1  0  0  0  0
  9 10  2  0  0  0  0
  9 11  1  0  0  0  0
 11 12  1  0  0  0  0
 11 25  1  0  0  0  0
 11 41  1  6  0  0  0
 12 13  1  0  0  0  0
 12 42  1  0  0  0  0
 12 43  1  0  0  0  0
 13 14  1  0  0  0  0
 13 44  1  0  0  0  0
 13 45  1  0  0  0  0
 14 15  1  0  0  0  0
 15 23  2  0  0  0  0
 15 16  1  0  0  0  0
 16 17  2  0  0  0  0
 16 46  1  0  0  0  0
 17 18  1  0  0  0  0
 17 47  1  0  0  0  0
 18 19  1  0  0  0  0
 18 22  2  0  0  0  0
 19 20  2  0  0  0  0
 19 21  1  0  0  0  0
 22 23  1  0  0  0  0
 22 48  1  0  0  0  0
 23 24  1  0  0  0  0
 25 26  2  0  0  0  0
 25 27  1  0  0  0  0
 27 32  2  0  0  0  0
 27 28  1  0  0  0  0
 28 29  2  0  0  0  0
 28 49  1  0  0  0  0
 29 30  1  0  0  0  0
 29 50  1  0  0  0  0
 30 31  2  0  0  0  0
 30 51  1  0  0  0  0
 31 32  1  0  0  0  0
 31 52  1  0  0  0  0
 32 33  1  0  0  0  0
M  CHG  1  33  -1
M  END
$$$$
