
 OpenBabel03202621312D

 27 28  0  0  0  0  0  0  0  0999 V2000
    3.4641   -2.0000    0.0000 C   0  0  0  0  0  0  0  0  0  0  0  0
    2.5981   -1.5000    0.0000 S   0  0  0  0  0  0  0  0  0  0  0  0
    3.0531    0.0712    0.0035 C   0  0  0  0  0  0  0  0  0  0  0  0
    4.0550    0.7395   -0.0006 O   0  0  0  0  0  0  0  0  0  0  0  0
    1.8057    0.3263    0.0109 N   0  0  0  0  0  0  0  0  0  0  0  0
    0.6844   -0.7753    0.0184 C   0  0  0  0  0  0  0  0  0  0  0  0
    0.5583   -2.5467    0.0049 C   0  0  0  0  0  0  0  0  0  0  0  0
   -0.5144   -3.2872   -0.0033 C   0  0  0  0  0  0  0  0  0  0  0  0
   -1.3055   -2.2247   -0.0033 C   0  0  0  0  0  0  0  0  0  0  0  0
   -2.6751   -2.3393   -0.0003 C   0  0  0  0  0  0  0  0  0  0  0  0
   -3.0091   -1.0529    0.0005 C   0  0  0  0  0  0  0  0  0  0  0  0
   -1.8171   -0.1910    0.0000 N   0  0  0  0  0  0  0  0  0  0  0  0
   -2.1261    0.7601    0.0000 C   0  0  0  0  0  0  0  0  0  0  0  0
   -0.8535   -0.8771   -0.0126 C   0  0  0  0  0  0  0  0  0  0  0  0
   -0.0528    0.1474   -0.0196 C   0  0  0  0  0  0  0  0  0  0  0  0
    3.2484   -3.0730   -0.0001 H   0  0  0  0  0  0  0  0  0  0  0  0
    4.3868   -1.3973   -0.0003 H   0  0  0  0  0  0  0  0  0  0  0  0
    4.3907   -2.5350    0.0000 H   0  0  0  0  0  0  0  0  0  0  0  0
    1.6921    1.3333    0.0008 H   0  0  0  0  0  0  0  0  0  0  0  0
    1.3715   -3.2728    0.0029 H   0  0  0  0  0  0  0  0  0  0  0  0
   -0.6560   -4.3450   -0.0005 H   0  0  0  0  0  0  0  0  0  0  0  0
   -3.2933   -3.2236    0.0003 H   0  0  0  0  0  0  0  0  0  0  0  0
   -4.0246   -0.6584    0.0004 H   0  0  0  0  0  0  0  0  0  0  0  0
   -1.4424    1.6107    0.0018 H   0  0  0  0  0  0  0  0  0  0  0  0
   -3.2267    0.9249    0.0000 H   0  0  0  0  0  0  0  0  0  0  0  0
   -2.4567    1.7777    0.0000 H   0  0  0  0  0  0  0  0  0  0  0  0
    0.0424    1.2085   -0.0053 H   0  0  0  0  0  0  0  0  0  0  0  0
  1  2  1  0  0  0  0
  1 16  1  0  0  0  0
  1 17  1  0  0  0  0
  1 18  1  0  0  0  0
  2  3  1  0  0  0  0
  3  4  2  0  0  0  0
  3  5  1  0  0  0  0
  5  6  1  0  0  0  0
  5 19  1  0  0  0  0
  6 15  2  0  0  0  0
  6  7  1  0  0  0  0
  7  8  2  0  0  0  0
  7 20  1  0  0  0  0
  8  9  1  0  0  0  0
  8 21  1  0  0  0  0
  9 14  2  0  0  0  0
  9 10  1  0  0  0  0
 10 11  2  0  0  0  0
 10 22  1  0  0  0  0
 11 12  1  0  0  0  0
 11 23  1  0  0  0  0
 12 13  1  0  0  0  0
 12 14  1  0  0  0  0
 13 24  1  0  0  0  0
 13 25  1  0  0  0  0
 13 26  1  0  0  0  0
 14 15  1  0  0  0  0
 15 27  1  0  0  0  0
M  END
$$$$
