
 OpenBabel03202621382D

 26 27  0  0  0  0  0  0  0  0999 V2000
   -5.2812    4.8090    0.0000 C   0  0  0  0  0  0  0  0  0  0  0  0
   -4.4152    4.3090    0.0000 S   0  0  0  0  0  0  0  0  0  0  0  0
   -4.7532    2.6261    0.2479 C   0  0  0  0  0  0  0  0  0  0  0  0
   -5.7909    2.2003    0.7299 O   0  0  0  0  0  0  0  0  0  0  0  0
   -3.6964    1.8830   -0.1593 N   0  0  0  0  0  0  0  0  0  0  0  0
   -3.6344    0.4580    0.0409 C   0  0  0  0  0  0  0  0  0  0  0  0
   -2.2153   -0.0525    0.0347 C   0  0  0  0  0  0  0  0  0  0  0  0
   -1.9648   -1.4041   -0.3004 C   0  0  0  0  0  0  0  0  0  0  0  0
   -0.6605   -1.9104   -0.3348 C   0  0  0  0  0  0  0  0  0  0  0  0
    0.3708   -1.0472   -0.0372 C   0  0  0  0  0  0  0  0  0  0  0  0
    0.1395    0.2568    0.3200 C   0  0  0  0  0  0  0  0  0  0  0  0
   -1.1345    0.7758    0.3920 C   0  0  0  0  0  0  0  0  0  0  0  0
    1.2842    0.9444    0.5709 O   0  0  0  0  0  0  0  0  0  0  0  0
    2.2693   -0.0603    0.2583 C   0  0  0  0  0  0  0  0  0  0  0  0
    1.6959   -1.3461   -0.0555 O   0  0  0  0  0  0  0  0  0  0  0  0
   -4.9458    5.7319   -0.5104 H   0  0  0  0  0  0  0  0  0  0  0  0
   -5.3599    5.0362    1.0830 H   0  0  0  0  0  0  0  0  0  0  0  0
   -6.2078    5.3440    0.0000 H   0  0  0  0  0  0  0  0  0  0  0  0
   -2.9809    2.3571   -0.6921 H   0  0  0  0  0  0  0  0  0  0  0  0
   -4.1186    0.1995    0.9904 H   0  0  0  0  0  0  0  0  0  0  0  0
   -4.2071    0.0008   -0.7742 H   0  0  0  0  0  0  0  0  0  0  0  0
   -2.7947   -2.0675   -0.5412 H   0  0  0  0  0  0  0  0  0  0  0  0
   -0.4664   -2.9437   -0.5954 H   0  0  0  0  0  0  0  0  0  0  0  0
   -1.2724    1.8047    0.7052 H   0  0  0  0  0  0  0  0  0  0  0  0
    2.8530    0.2820   -0.6040 H   0  0  0  0  0  0  0  0  0  0  0  0
    2.9401   -0.1711    1.1173 H   0  0  0  0  0  0  0  0  0  0  0  0
  1  2  1  0  0  0  0
  1 16  1  0  0  0  0
  1 17  1  0  0  0  0
  1 18  1  0  0  0  0
  2  3  1  0  0  0  0
  3  4  2  0  0  0  0
  3  5  1  0  0  0  0
  5  6  1  0  0  0  0
  5 19  1  0  0  0  0
  6  7  1  0  0  0  0
  6 20  1  0  0  0  0
  6 21  1  0  0  0  0
  7 12  2  0  0  0  0
  7  8  1  0  0  0  0
  8  9  2  0  0  0  0
  8 22  1  0  0  0  0
  9 10  1  0  0  0  0
  9 23  1  0  0  0  0
 10 15  1  0  0  0  0
 10 11  2  0  0  0  0
 11 12  1  0  0  0  0
 11 13  1  0  0  0  0
 12 24  1  0  0  0  0
 13 14  1  0  0  0  0
 14 15  1  0  0  0  0
 14 25  1  0  0  0  0
 14 26  1  0  0  0  0
M  END
$$$$
