
 OpenBabel03202621322D

 18 17  0  0  1  0  0  0  0  0999 V2000
    4.3301   -1.5000    0.0000 C   0  0  0  0  0  0  0  0  0  0  0  0
    4.3301   -0.5000    0.0000 C   0  0  2  0  0  0  0  0  0  0  0  0
    5.5318    0.4005   -1.1487 S   0  0  0  0  0  0  0  0  0  0  0  0
    2.9861    0.2879   -0.1461 C   0  0  0  0  0  0  0  0  0  0  0  0
    1.7169   -0.5171    0.1291 C   0  0  0  0  0  0  0  0  0  0  0  0
    0.2737    0.5865    0.1130 S   0  0  0  0  0  0  0  0  0  0  0  0
   -0.9971   -0.6109    0.1179 C   0  0  0  0  0  0  0  0  0  0  0  0
   -2.1810   -0.3001    0.0586 O   0  0  0  0  0  0  0  0  0  0  0  0
    4.0441   -1.7056   -1.0597 H   0  0  0  0  0  0  0  0  0  0  0  0
    5.4106   -1.7260    0.1773 H   0  0  0  0  0  0  0  0  0  0  0  0
    4.3301   -2.5700    0.0000 H   0  0  0  0  0  0  0  0  0  0  0  0
    4.6770   -0.1053    0.9706 H   0  0  0  0  0  0  0  0  0  0  0  0
    6.6341    0.2012   -0.4105 H   0  0  0  0  0  0  0  0  0  0  0  0
    3.0251    1.1421    0.5488 H   0  0  0  0  0  0  0  0  0  0  0  0
    2.8916    0.7300   -1.1513 H   0  0  0  0  0  0  0  0  0  0  0  0
    1.5868   -1.2706   -0.6532 H   0  0  0  0  0  0  0  0  0  0  0  0
    1.7687   -1.0213    1.0976 H   0  0  0  0  0  0  0  0  0  0  0  0
   -0.6949   -1.6626    0.1770 H   0  0  0  0  0  0  0  0  0  0  0  0
  1  9  1  0  0  0  0
  1 10  1  0  0  0  0
  1 11  1  0  0  0  0
  2  1  1  0  0  0  0
  2  3  1  0  0  0  0
  2  4  1  0  0  0  0
  2 12  1  6  0  0  0
  3 13  1  0  0  0  0
  4  5  1  0  0  0  0
  4 14  1  0  0  0  0
  4 15  1  0  0  0  0
  5  6  1  0  0  0  0
  5 16  1  0  0  0  0
  5 17  1  0  0  0  0
  6  7  1  0  0  0  0
  7  8  2  0  0  0  0
  7 18  1  0  0  0  0
M  END
$$$$
