
 OpenBabel03202621342D

 20 20  0  0  1  0  0  0  0  0999 V2000
   -1.9319   -0.4824    0.0000 C   0  0  0  0  0  0  0  0  0  0  0  0
   -1.6730   -1.4483    0.0000 S   0  0  0  0  0  0  0  0  0  0  0  0
    0.0224   -1.8342    0.1893 C   0  0  0  0  0  0  0  0  0  0  0  0
    0.3143   -2.8906    0.7442 O   0  0  0  0  0  0  0  0  0  0  0  0
    1.0198   -0.8448   -0.4741 C   0  0  2  0  0  0  0  0  0  0  0  0
    1.3652    0.4805    0.2518 C   0  0  0  0  0  0  0  0  0  0  0  0
    2.8189    0.3270   -0.2416 C   0  0  0  0  0  0  0  0  0  0  0  0
    2.5437   -1.1708   -0.4762 C   0  0  2  0  0  0  0  0  0  0  0  0
    2.9496   -1.8791    0.7373 N   0  0  0  0  0  0  0  0  0  0  0  0
   -1.8917   -0.2817    1.0896 H   0  0  0  0  0  0  0  0  0  0  0  0
   -2.9956   -0.5902   -0.2848 H   0  0  0  0  0  0  0  0  0  0  0  0
   -2.2089    0.5511    0.0000 H   0  0  0  0  0  0  0  0  0  0  0  0
    0.7032   -0.6376   -1.5110 H   0  0  0  0  0  0  0  0  0  0  0  0
    1.2542    0.4425    1.3415 H   0  0  0  0  0  0  0  0  0  0  0  0
    0.8465    1.3663   -0.1248 H   0  0  0  0  0  0  0  0  0  0  0  0
    3.5923    0.5899    0.4865 H   0  0  0  0  0  0  0  0  0  0  0  0
    3.0238    0.8757   -1.1680 H   0  0  0  0  0  0  0  0  0  0  0  0
    2.9334   -1.5995   -1.4030 H   0  0  0  0  0  0  0  0  0  0  0  0
    2.4234   -2.7468    0.9010 H   0  0  0  0  0  0  0  0  0  0  0  0
    3.9332   -2.1471    0.7532 H   0  0  0  0  0  0  0  0  0  0  0  0
  1  2  1  0  0  0  0
  1 10  1  0  0  0  0
  1 11  1  0  0  0  0
  1 12  1  0  0  0  0
  2  3  1  0  0  0  0
  3  4  2  0  0  0  0
  5  3  1  0  0  0  0
  5  6  1  0  0  0  0
  5  8  1  0  0  0  0
  5 13  1  1  0  0  0
  6  7  1  0  0  0  0
  6 14  1  0  0  0  0
  6 15  1  0  0  0  0
  7  8  1  0  0  0  0
  7 16  1  0  0  0  0
  7 17  1  0  0  0  0
  8  9  1  0  0  0  0
  8 18  1  1  0  0  0
  9 19  1  0  0  0  0
  9 20  1  0  0  0  0
M  END
$$$$
