
 OpenBabel03202621292D

 21 20  0  0  1  0  0  0  0  0999 V2000
    4.3301   -1.5000    0.0000 C   0  0  0  0  0  0  0  0  0  0  0  0
    4.3301   -0.5000    0.0000 S   0  0  0  0  0  0  0  0  0  0  0  0
    2.8514    0.3989    0.0080 C   0  0  0  0  0  0  0  0  0  0  0  0
    2.8918    1.5954    0.2865 O   0  0  0  0  0  0  0  0  0  0  0  0
    1.5733   -0.3039   -0.3872 C   0  0  0  0  0  0  0  0  0  0  0  0
    0.3405    0.5182    0.0332 C   0  0  2  0  0  0  0  0  0  0  0  0
    0.2042    1.7535   -0.7651 N   0  0  0  0  0  0  0  0  0  0  0  0
   -0.9441   -0.3378   -0.0823 C   0  0  0  0  0  0  0  0  0  0  0  0
   -2.1636    0.4336    0.1793 N   0  0  0  0  0  0  0  0  0  0  0  0
    4.0868   -1.6833    1.0659 H   0  0  0  0  0  0  0  0  0  0  0  0
    5.4150   -1.6713   -0.1338 H   0  0  0  0  0  0  0  0  0  0  0  0
    4.3301   -2.5700    0.0000 H   0  0  0  0  0  0  0  0  0  0  0  0
    1.5808   -0.4722   -1.4705 H   0  0  0  0  0  0  0  0  0  0  0  0
    1.5379   -1.2801    0.1142 H   0  0  0  0  0  0  0  0  0  0  0  0
    0.4566    0.8194    1.0836 H   0  0  0  0  0  0  0  0  0  0  0  0
    1.0834    2.2806   -0.6844 H   0  0  0  0  0  0  0  0  0  0  0  0
   -0.4876    2.3562   -0.3200 H   0  0  0  0  0  0  0  0  0  0  0  0
   -0.8970   -1.1718    0.6279 H   0  0  0  0  0  0  0  0  0  0  0  0
   -1.0206   -0.7710   -1.0863 H   0  0  0  0  0  0  0  0  0  0  0  0
   -2.2167    1.1652   -0.5318 H   0  0  0  0  0  0  0  0  0  0  0  0
   -2.0751    0.9173    1.0710 H   0  0  0  0  0  0  0  0  0  0  0  0
  1  2  1  0  0  0  0
  1 10  1  0  0  0  0
  1 11  1  0  0  0  0
  1 12  1  0  0  0  0
  2  3  1  0  0  0  0
  3  4  2  0  0  0  0
  3  5  1  0  0  0  0
  5  6  1  0  0  0  0
  5 13  1  0  0  0  0
  5 14  1  0  0  0  0
  6  7  1  0  0  0  0
  6  8  1  0  0  0  0
  6 15  1  6  0  0  0
  7 16  1  0  0  0  0
  7 17  1  0  0  0  0
  8  9  1  0  0  0  0
  8 18  1  0  0  0  0
  8 19  1  0  0  0  0
  9 20  1  0  0  0  0
  9 21  1  0  0  0  0
M  END
$$$$
