
 OpenBabel03202621342D

 14 14  0  0  0  0  0  0  0  0999 V2000
    4.2544   -0.9731    0.0000 N   0  5  0  0  0  0  0  0  0  0  0  0
    3.3049   -0.3350   -0.0000 N   0  3  0  0  0  0  0  0  0  0  0  0
    2.2886    0.3672   -0.0000 N   0  0  0  0  0  0  0  0  0  0  0  0
    1.0832   -0.3195   -0.0000 C   0  0  0  0  0  0  0  0  0  0  0  0
    0.9528   -1.6656   -0.0000 C   0  0  0  0  0  0  0  0  0  0  0  0
   -0.2085   -2.3907    0.0001 O   0  0  0  0  0  0  0  0  0  0  0  0
   -1.4056   -1.6738   -0.0002 C   0  0  0  0  0  0  0  0  0  0  0  0
   -1.3192   -0.2031    0.0000 C   0  0  0  0  0  0  0  0  0  0  0  0
   -0.1653    0.4894    0.0000 C   0  0  0  0  0  0  0  0  0  0  0  0
   -0.0069    1.7400    0.0000 O   0  5  0  0  0  0  0  0  0  0  0  0
    1.7834   -2.3563    0.0000 H   0  0  0  0  0  0  0  0  0  0  0  0
   -1.9423   -2.6341    0.0000 H   0  0  0  0  0  0  0  0  0  0  0  0
   -2.5244   -1.6303    0.0000 H   0  0  0  0  0  0  0  0  0  0  0  0
   -2.2384    0.3783    0.0000 H   0  0  0  0  0  0  0  0  0  0  0  0
  1  2  2  0  0  0  0
  2  3  2  0  0  0  0
  3  4  1  0  0  0  0
  4  9  1  0  0  0  0
  4  5  2  0  0  0  0
  5  6  1  0  0  0  0
  5 11  1  0  0  0  0
  6  7  1  0  0  0  0
  7  8  1  0  0  0  0
  7 12  1  0  0  0  0
  7 13  1  0  0  0  0
  8  9  2  0  0  0  0
  8 14  1  0  0  0  0
  9 10  1  0  0  0  0
M  CHG  3   1  -1   2   1  10  -1
M  END
$$$$
