
 OpenBabel03202621282D

 15 16  0  0  1  0  0  0  0  0999 V2000
    2.8325    1.1300    0.0000 C   0  0  0  0  0  0  0  0  0  0  0  0
    2.0235    0.5422    0.0000 O   0  0  0  0  0  0  0  0  0  0  0  0
    2.1280   -0.4523    0.0000 C   0  0  2  0  0  0  0  0  0  0  0  0
    2.9941   -0.9523    0.0000 O   0  0  0  0  0  0  0  0  0  0  0  0
    2.7861   -1.9305    0.0000 C   0  0  0  0  0  0  0  0  0  0  0  0
    3.4553   -2.6736    0.0000 O   0  0  0  0  0  0  0  0  0  0  0  0
    1.7916   -2.0350    0.0000 C   0  0  0  0  0  0  0  0  0  0  0  0
    1.2916   -2.9010    0.0000 Cl  0  0  0  0  0  0  0  0  0  0  0  0
    1.3849   -1.1215    0.0000 C   0  0  0  0  0  0  0  0  0  0  0  0
    0.4067   -0.9135    0.0000 N   0  0  0  0  0  0  0  0  0  0  0  0
   -0.3364   -1.5827    0.0000 C   0  0  0  0  0  0  0  0  0  0  0  0
   -1.2024   -1.0827    0.0000 C   0  0  0  0  0  0  0  0  0  0  0  0
   -2.1160   -1.4894    0.0000 C   0  0  0  0  0  0  0  0  0  0  0  0
   -0.9945   -0.1045    0.0000 N   0  0  0  0  0  0  0  0  0  0  0  0
    0.0000   -0.0000    0.0000 N   0  0  0  0  0  0  0  0  0  0  0  0
  1  2  1  0  0  0  0
  3  2  1  6  0  0  0
  3  4  1  0  0  0  0
  3  9  1  0  0  0  0
  4  5  1  0  0  0  0
  5  6  2  0  0  0  0
  5  7  1  0  0  0  0
  7  8  1  0  0  0  0
  7  9  2  0  0  0  0
  9 10  1  0  0  0  0
 10 15  1  0  0  0  0
 10 11  1  0  0  0  0
 11 12  2  0  0  0  0
 12 13  1  0  0  0  0
 12 14  1  0  0  0  0
 14 15  2  0  0  0  0
M  END
$$$$
