
 OpenBabel03202621302D

 25 26  0  0  1  0  0  0  0  0999 V2000
   -0.2788   -1.7601    0.0000 C   0  0  0  0  0  0  0  0  0  0  0  0
   -0.5878   -0.8090    0.0000 C   0  0  0  0  0  0  0  0  0  0  0  0
   -1.5970   -0.2271   -0.7339 C   0  0  0  0  0  0  0  0  0  0  0  0
   -1.8787    0.9844   -0.1203 N   0  0  0  0  0  0  0  0  0  0  0  0
   -3.1157    1.6168   -0.0843 C   0  0  0  0  0  0  0  0  0  0  0  0
   -4.2883    0.9666   -0.1508 C   0  0  0  0  0  0  0  0  0  0  0  0
   -4.5303   -0.4996   -0.1706 C   0  0  0  0  0  0  0  0  0  0  0  0
   -5.8843   -0.5876    0.4794 C   0  0  2  0  0  0  0  0  0  0  0  0
   -6.6694   -1.7856   -0.0355 C   0  0  0  0  0  0  0  0  0  0  0  0
   -6.5371    0.6473    0.1664 O   0  0  0  0  0  0  0  0  0  0  0  0
   -5.6081    1.6208   -0.0438 C   0  0  0  0  0  0  0  0  0  0  0  0
   -5.8231    2.8154   -0.1579 O   0  0  0  0  0  0  0  0  0  0  0  0
   -0.7607    1.3422    0.5495 N   0  0  0  0  0  0  0  0  0  0  0  0
   -0.0583    0.2330    0.7542 N   0  0  0  0  0  0  0  0  0  0  0  0
   -0.7259   -2.0887    0.9681 H   0  0  0  0  0  0  0  0  0  0  0  0
    0.8229   -1.6221    0.1146 H   0  0  0  0  0  0  0  0  0  0  0  0
    0.0518   -2.7777    0.0000 H   0  0  0  0  0  0  0  0  0  0  0  0
   -2.2381   -0.6209   -1.5081 H   0  0  0  0  0  0  0  0  0  0  0  0
   -3.0752    2.6818    0.1276 H   0  0  0  0  0  0  0  0  0  0  0  0
   -3.8089   -1.0801    0.4176 H   0  0  0  0  0  0  0  0  0  0  0  0
   -4.5359   -0.8623   -1.2019 H   0  0  0  0  0  0  0  0  0  0  0  0
   -5.7921   -0.6515    1.5715 H   0  0  0  0  0  0  0  0  0  0  0  0
   -7.4194   -1.4948   -0.7760 H   0  0  0  0  0  0  0  0  0  0  0  0
   -6.0110   -2.5436   -0.4759 H   0  0  0  0  0  0  0  0  0  0  0  0
   -7.1902   -2.2748    0.7938 H   0  0  0  0  0  0  0  0  0  0  0  0
  1  2  1  0  0  0  0
  1 15  1  0  0  0  0
  1 16  1  0  0  0  0
  1 17  1  0  0  0  0
  2 14  1  0  0  0  0
  2  3  2  0  0  0  0
  3  4  1  0  0  0  0
  3 18  1  0  0  0  0
  4  5  1  0  0  0  0
  4 13  1  0  0  0  0
  5  6  2  3  0  0  0
  5 19  1  0  0  0  0
  6 11  1  0  0  0  0
  6  7  1  0  0  0  0
  7  8  1  0  0  0  0
  7 20  1  0  0  0  0
  7 21  1  0  0  0  0
  8  9  1  0  0  0  0
  8 10  1  0  0  0  0
  8 22  1  1  0  0  0
  9 23  1  0  0  0  0
  9 24  1  0  0  0  0
  9 25  1  0  0  0  0
 10 11  1  0  0  0  0
 11 12  2  0  0  0  0
 13 14  2  0  0  0  0
M  END
$$$$
