
 OpenBabel03202621282D

 37 39  0  0  1  0  0  0  0  0999 V2000
   -0.8660    2.5000    0.0000 C   0  0  0  0  0  0  0  0  0  0  0  0
   -0.8660    1.5000    0.0000 C   0  0  0  0  0  0  0  0  0  0  0  0
   -1.7321    1.0000    0.0000 C   0  0  0  0  0  0  0  0  0  0  0  0
   -0.0000    1.0000    0.0000 C   0  0  0  0  0  0  0  0  0  0  0  0
    0.8660    1.5000    0.0000 C   0  0  0  0  0  0  0  0  0  0  0  0
    1.7321    1.0000    0.0000 C   0  0  0  0  0  0  0  0  0  0  0  0
    2.5981    1.5000    0.0000 C   0  0  0  0  0  0  0  0  0  0  0  0
    2.7026    2.4945    0.0000 N   0  0  0  0  0  0  0  0  0  0  0  0
    3.6808    2.7024    0.0000 N   0  0  0  0  0  0  0  0  0  0  0  0
    4.1808    1.8364    0.0000 N   0  0  0  0  0  0  0  0  0  0  0  0
    5.1753    1.7319    0.0000 C   0  0  0  0  0  0  0  0  0  0  0  0
    5.7631    2.5409    0.0000 C   0  0  0  0  0  0  0  0  0  0  0  0
    6.7576    2.4364    0.0000 C   0  0  2  0  0  0  0  0  0  0  0  0
    7.1643    1.5228    0.0000 C   0  0  0  0  0  0  0  0  0  0  0  0
    6.5765    0.7138    0.0000 O   0  0  0  0  0  0  0  0  0  0  0  0
    8.1588    1.4183    0.0000 C   0  0  0  0  0  0  0  0  0  0  0  0
    8.7466    2.2273    0.0000 C   0  0  0  0  0  0  0  0  0  0  0  0
    9.7411    2.1228    0.0000 C   0  0  0  0  0  0  0  0  0  0  0  0
   10.1479    1.2092    0.0000 C   0  0  0  0  0  0  0  0  0  0  0  0
    9.5601    0.4002    0.0000 C   0  0  0  0  0  0  0  0  0  0  0  0
    8.5656    0.5047    0.0000 C   0  0  0  0  0  0  0  0  0  0  0  0
    7.9778   -0.3043    0.0000 O   0  0  0  0  0  0  0  0  0  0  0  0
    7.3454    3.2454    0.0000 C   0  0  0  0  0  0  0  0  0  0  0  0
    8.3399    3.1409    0.0000 O   0  0  0  0  0  0  0  0  0  0  0  0
    6.9386    4.1589    0.0000 C   0  0  1  0  0  0  0  0  0  0  0  0
    5.9441    4.2635    0.0000 O   0  0  0  0  0  0  0  0  0  0  0  0
    7.5264    4.9679    0.0000 C   0  0  0  0  0  0  0  0  0  0  0  0
    8.5209    4.8634    0.0000 O   0  0  0  0  0  0  0  0  0  0  0  0
    7.1197    5.8815    0.0000 C   0  0  0  0  0  0  0  0  0  0  0  0
    6.1252    5.9860    0.0000 C   0  0  0  0  0  0  0  0  0  0  0  0
    5.7184    6.8996    0.0000 C   0  0  0  0  0  0  0  0  0  0  0  0
    5.5374    5.1770    0.0000 O   0  0  0  0  0  0  0  0  0  0  0  0
    3.5116    1.0933    0.0000 N   0  0  0  0  0  0  0  0  0  0  0  0
    1.7321    0.0000    0.0000 C   0  0  0  0  0  0  0  0  0  0  0  0
    0.8660   -0.5000    0.0000 C   0  0  0  0  0  0  0  0  0  0  0  0
    0.0000   -0.0000    0.0000 C   0  0  0  0  0  0  0  0  0  0  0  0
   -0.8660   -0.5000    0.0000 F   0  0  0  0  0  0  0  0  0  0  0  0
  1  2  2  0  0  0  0
  2  3  1  0  0  0  0
  2  4  1  0  0  0  0
  4 36  2  0  0  0  0
  4  5  1  0  0  0  0
  5  6  2  0  0  0  0
  6  7  1  0  0  0  0
  6 34  1  0  0  0  0
  7 33  2  0  0  0  0
  7  8  1  0  0  0  0
  8  9  2  0  0  0  0
  9 10  1  0  0  0  0
 10 11  1  0  0  0  0
 10 33  1  0  0  0  0
 11 12  1  0  0  0  0
 13 12  1  1  0  0  0
 13 14  1  0  0  0  0
 13 23  1  0  0  0  0
 14 15  2  0  0  0  0
 14 16  1  0  0  0  0
 16 21  2  0  0  0  0
 16 17  1  0  0  0  0
 17 18  2  0  0  0  0
 18 19  1  0  0  0  0
 19 20  2  0  0  0  0
 20 21  1  0  0  0  0
 21 22  1  0  0  0  0
 23 24  2  0  0  0  0
 23 25  1  0  0  0  0
 25 26  1  1  0  0  0
 25 27  1  0  0  0  0
 27 28  2  0  0  0  0
 27 29  1  0  0  0  0
 29 30  1  0  0  0  0
 30 31  1  0  0  0  0
 30 32  2  0  0  0  0
 34 35  2  0  0  0  0
 35 36  1  0  0  0  0
 36 37  1  0  0  0  0
M  END
$$$$
