
 OpenBabel03202621372D

 64 65  0  0  1  0  0  0  0  0999 V2000
   10.4968   -2.9945    0.0000 C   0  0  0  0  0  0  0  0  0  0  0  0
    9.6308   -2.4945    0.0000 C   0  0  0  0  0  0  0  0  0  0  0  0
    9.5073   -1.2746   -0.0759 O   0  0  0  0  0  0  0  0  0  0  0  0
    8.4481   -3.4094    0.1057 C   0  0  0  0  0  0  0  0  0  0  0  0
    7.7044   -3.3543    1.4049 C   0  0  0  0  0  0  0  0  0  0  0  0
    7.8874   -2.4710    2.2393 O   0  0  0  0  0  0  0  0  0  0  0  0
    6.6560   -4.4353    1.6229 C   0  0  2  0  0  0  0  0  0  0  0  0
    6.7872   -5.5474    0.7572 O   0  0  0  0  0  0  0  0  0  0  0  0
    5.2537   -3.8273    1.7166 C   0  0  0  0  0  0  0  0  0  0  0  0
    4.6528   -3.8009    2.7952 O   0  0  0  0  0  0  0  0  0  0  0  0
    4.5432   -3.3423    0.4598 C   0  0  2  0  0  0  0  0  0  0  0  0
    3.9232   -4.5803   -0.2429 C   0  0  0  0  0  0  0  0  0  0  0  0
    2.6236   -5.0727    0.3823 C   0  0  0  0  0  0  0  0  0  0  0  0
    2.2863   -6.3054   -0.2483 O   0  0  0  0  0  0  0  0  0  0  0  0
    5.4105   -2.5467   -0.5278 C   0  0  0  0  0  0  0  0  0  0  0  0
    5.8132   -3.0878   -1.5618 O   0  0  0  0  0  0  0  0  0  0  0  0
    5.8781   -1.1290   -0.2487 C   0  0  0  0  0  0  0  0  0  0  0  0
    6.9995   -0.6023   -0.8637 C   0  0  0  0  0  0  0  0  0  0  0  0
    7.4565    0.7001   -0.5734 C   0  0  0  0  0  0  0  0  0  0  0  0
    6.7706    1.5078    0.3311 C   0  0  0  0  0  0  0  0  0  0  0  0
    5.5565    1.0659    0.8152 C   0  0  0  0  0  0  0  0  0  0  0  0
    5.1039   -0.1913    0.4296 C   0  0  0  0  0  0  0  0  0  0  0  0
    3.7210   -0.3449    0.3943 O   0  0  0  0  0  0  0  0  0  0  0  0
    3.1642   -0.4476   -0.8862 C   0  0  0  0  0  0  0  0  0  0  0  0
    3.7225    0.2040   -2.3151 S   0  0  0  0  0  0  0  0  0  0  0  0
    2.0768   -1.2387   -0.8554 N   0  0  0  0  0  0  0  0  0  0  0  0
    1.0523   -0.9613    0.0205 C   0  0  0  0  0  0  0  0  0  0  0  0
   -0.0866   -1.7072    0.0663 C   0  0  0  0  0  0  0  0  0  0  0  0
   -1.0405   -0.7708    0.5163 C   0  0  0  0  0  0  0  0  0  0  0  0
   -2.4727   -0.7626    0.0000 C   0  0  0  0  0  0  0  0  0  0  0  0
   -3.0605    0.0464    0.0000 C   0  0  0  0  0  0  0  0  0  0  0  0
   -2.8794   -1.6762    0.0000 C   0  0  0  0  0  0  0  0  0  0  0  0
   -0.4793    0.2719    1.1297 N   0  0  0  0  0  0  0  0  0  0  0  0
    0.8199    0.1705    0.7885 N   0  0  0  0  0  0  0  0  0  0  0  0
    1.6104    1.3651    0.9859 C   0  0  0  0  0  0  0  0  0  0  0  0
   10.8595   -2.6525   -0.9991 H   0  0  0  0  0  0  0  0  0  0  0  0
   10.9811   -2.4577    0.8513 H   0  0  0  0  0  0  0  0  0  0  0  0
   11.4234   -3.5295    0.0000 H   0  0  0  0  0  0  0  0  0  0  0  0
    8.8035   -4.4482   -0.0040 H   0  0  0  0  0  0  0  0  0  0  0  0
    7.8301   -3.2481   -0.7633 H   0  0  0  0  0  0  0  0  0  0  0  0
    6.8821   -4.8414    2.6182 H   0  0  0  0  0  0  0  0  0  0  0  0
    6.6187   -5.2834   -0.1660 H   0  0  0  0  0  0  0  0  0  0  0  0
    3.7216   -2.7091    0.7941 H   0  0  0  0  0  0  0  0  0  0  0  0
    4.6141   -5.4243   -0.2597 H   0  0  0  0  0  0  0  0  0  0  0  0
    3.7244   -4.3680   -1.3024 H   0  0  0  0  0  0  0  0  0  0  0  0
    2.7255   -5.2508    1.4560 H   0  0  0  0  0  0  0  0  0  0  0  0
    1.8115   -4.3646    0.2019 H   0  0  0  0  0  0  0  0  0  0  0  0
    1.5829   -6.7218    0.2801 H   0  0  0  0  0  0  0  0  0  0  0  0
    7.5561   -1.1734   -1.5961 H   0  0  0  0  0  0  0  0  0  0  0  0
    8.3741    1.0593   -1.0278 H   0  0  0  0  0  0  0  0  0  0  0  0
    7.1349    2.4997    0.5642 H   0  0  0  0  0  0  0  0  0  0  0  0
    4.9220    1.7354    1.3896 H   0  0  0  0  0  0  0  0  0  0  0  0
    1.8106   -1.6987   -1.7212 H   0  0  0  0  0  0  0  0  0  0  0  0
   -0.2775   -2.6133   -0.4950 H   0  0  0  0  0  0  0  0  0  0  0  0
   -2.1277   -0.7746   -1.0706 H   0  0  0  0  0  0  0  0  0  0  0  0
   -2.3955    0.8569   -0.4255 H   0  0  0  0  0  0  0  0  0  0  0  0
   -3.1570    0.2542    1.1065 H   0  0  0  0  0  0  0  0  0  0  0  0
   -3.6894    0.9120    0.0000 H   0  0  0  0  0  0  0  0  0  0  0  0
   -3.8849   -1.5992   -0.5445 H   0  0  0  0  0  0  0  0  0  0  0  0
   -3.0349   -1.8693    1.1038 H   0  0  0  0  0  0  0  0  0  0  0  0
   -3.3146   -2.6537    0.0000 H   0  0  0  0  0  0  0  0  0  0  0  0
    2.3860    1.1522    1.7223 H   0  0  0  0  0  0  0  0  0  0  0  0
    0.9735    2.1665    1.3732 H   0  0  0  0  0  0  0  0  0  0  0  0
    2.0198    1.6979    0.0316 H   0  0  0  0  0  0  0  0  0  0  0  0
  1  2  1  0  0  0  0
  1 36  1  0  0  0  0
  1 37  1  0  0  0  0
  1 38  1  0  0  0  0
  2  3  2  0  0  0  0
  2  4  1  0  0  0  0
  4  5  1  0  0  0  0
  4 39  1  0  0  0  0
  4 40  1  0  0  0  0
  5  6  2  0  0  0  0
  5  7  1  0  0  0  0
  7  8  1  0  0  0  0
  7  9  1  0  0  0  0
  7 41  1  1  0  0  0
  8 42  1  0  0  0  0
  9 10  2  0  0  0  0
  9 11  1  0  0  0  0
 11 12  1  0  0  0  0
 11 15  1  0  0  0  0
 11 43  1  1  0  0  0
 12 13  1  0  0  0  0
 12 44  1  0  0  0  0
 12 45  1  0  0  0  0
 13 14  1  0  0  0  0
 13 46  1  0  0  0  0
 13 47  1  0  0  0  0
 14 48  1  0  0  0  0
 15 16  2  0  0  0  0
 15 17  1  0  0  0  0
 17 22  2  0  0  0  0
 17 18  1  0  0  0  0
 18 19  2  0  0  0  0
 18 49  1  0  0  0  0
 19 20  1  0  0  0  0
 19 50  1  0  0  0  0
 20 21  2  0  0  0  0
 20 51  1  0  0  0  0
 21 22  1  0  0  0  0
 21 52  1  0  0  0  0
 22 23  1  0  0  0  0
 23 24  1  0  0  0  0
 24 25  2  0  0  0  0
 24 26  1  0  0  0  0
 26 27  1  0  0  0  0
 26 53  1  0  0  0  0
 27 34  1  0  0  0  0
 27 28  2  0  0  0  0
 28 29  1  0  0  0  0
 28 54  1  0  0  0  0
 29 30  1  0  0  0  0
 29 33  2  0  0  0  0
 30 31  1  0  0  0  0
 30 32  1  0  0  0  0
 30 55  1  0  0  0  0
 31 56  1  0  0  0  0
 31 57  1  0  0  0  0
 31 58  1  0  0  0  0
 32 59  1  0  0  0  0
 32 60  1  0  0  0  0
 32 61  1  0  0  0  0
 33 34  1  0  0  0  0
 34 35  1  0  0  0  0
 35 62  1  0  0  0  0
 35 63  1  0  0  0  0
 35 64  1  0  0  0  0
M  END
$$$$
