
 OpenBabel03202621292D

 17 17  0  0  0  0  0  0  0  0999 V2000
    4.2309    2.0775    0.0000 C   0  0  0  0  0  0  0  0  0  0  0  0
    2.8648    3.1503   -0.0000 S   0  0  0  0  0  0  0  0  0  0  0  0
    1.3547    2.2603    0.0000 C   0  0  0  0  0  0  0  0  0  0  0  0
    0.3568    2.9707    0.0000 O   0  0  0  0  0  0  0  0  0  0  0  0
    1.2442    0.7652    0.0000 C   0  0  0  0  0  0  0  0  0  0  0  0
    2.2916   -0.0633    0.0000 N   0  0  0  0  0  0  0  0  0  0  0  0
    1.8156   -1.3408   -0.0000 O   0  0  0  0  0  0  0  0  0  0  0  0
    0.4821   -1.3019   -0.0000 C   0  0  0  0  0  0  0  0  0  0  0  0
    0.0000    0.0000    0.0000 C   0  0  0  0  0  0  0  0  0  0  0  0
   -0.9511    0.3090    0.0000 C   0  0  0  0  0  0  0  0  0  0  0  0
    4.0097    1.0390   -0.0000 H   0  0  0  0  0  0  0  0  0  0  0  0
    4.8837    2.9495   -0.0000 H   0  0  0  0  0  0  0  0  0  0  0  0
    5.2928    1.7377   -0.0000 H   0  0  0  0  0  0  0  0  0  0  0  0
   -0.0069   -2.2701   -0.0000 H   0  0  0  0  0  0  0  0  0  0  0  0
   -1.0070    1.3931   -0.0000 H   0  0  0  0  0  0  0  0  0  0  0  0
   -1.6117   -0.5752   -0.0000 H   0  0  0  0  0  0  0  0  0  0  0  0
   -1.9687    0.6396    0.0000 H   0  0  0  0  0  0  0  0  0  0  0  0
  1  2  1  0  0  0  0
  1 11  1  0  0  0  0
  1 12  1  0  0  0  0
  1 13  1  0  0  0  0
  2  3  1  0  0  0  0
  3  4  2  0  0  0  0
  3  5  1  0  0  0  0
  5  9  1  0  0  0  0
  5  6  2  0  0  0  0
  6  7  1  0  0  0  0
  7  8  1  0  0  0  0
  8  9  2  0  0  0  0
  8 14  1  0  0  0  0
  9 10  1  0  0  0  0
 10 15  1  0  0  0  0
 10 16  1  0  0  0  0
 10 17  1  0  0  0  0
M  END
$$$$
