
 OpenBabel03202621302D

 20 19  0  0  1  0  0  0  0  0999 V2000
    7.4073   -1.9553   -0.0530 N   0  0  0  0  0  0  0  0  0  0  0  0
    7.1153   -0.7069   -0.0259 C   0  0  0  0  0  0  0  0  0  0  0  0
    5.8921   -0.1257   -0.1570 N   0  0  0  0  0  0  0  0  0  0  0  0
    4.6388   -0.8300    0.0585 C   0  0  0  0  0  0  0  0  0  0  0  0
    3.4552    0.1073   -0.2235 C   0  0  2  0  0  0  0  0  0  0  0  0
    3.5320    1.2390    0.6592 O   0  0  0  0  0  0  0  0  0  0  0  0
    2.1315   -0.6283   -0.0034 C   0  0  0  0  0  0  0  0  0  0  0  0
    1.0569    0.2723   -0.3161 O   0  0  0  0  0  0  0  0  0  0  0  0
   -0.1813   -0.2679   -0.2349 C   0  0  0  0  0  0  0  0  0  0  0  0
   -1.2082    0.3606   -0.4356 O   0  0  0  0  0  0  0  0  0  0  0  0
    6.5663   -2.5107   -0.2053 H   0  0  0  0  0  0  0  0  0  0  0  0
    7.9229    0.0335    0.1071 H   0  0  0  0  0  0  0  0  0  0  0  0
    5.8399    0.8428    0.1631 H   0  0  0  0  0  0  0  0  0  0  0  0
    4.6045   -1.1715    1.0996 H   0  0  0  0  0  0  0  0  0  0  0  0
    4.5789   -1.7034   -0.5997 H   0  0  0  0  0  0  0  0  0  0  0  0
    3.5088    0.5017   -1.2451 H   0  0  0  0  0  0  0  0  0  0  0  0
    2.7453    1.7873    0.4690 H   0  0  0  0  0  0  0  0  0  0  0  0
    2.0720   -1.5079   -0.6533 H   0  0  0  0  0  0  0  0  0  0  0  0
    2.0327   -0.9293    1.0464 H   0  0  0  0  0  0  0  0  0  0  0  0
   -0.1674   -1.3365    0.0285 H   0  0  0  0  0  0  0  0  0  0  0  0
  1  2  2  0  0  0  0
  1 11  1  0  0  0  0
  2  3  1  0  0  0  0
  2 12  1  0  0  0  0
  3  4  1  0  0  0  0
  3 13  1  0  0  0  0
  4  5  1  0  0  0  0
  4 14  1  0  0  0  0
  4 15  1  0  0  0  0
  5  6  1  0  0  0  0
  5  7  1  0  0  0  0
  5 16  1  6  0  0  0
  6 17  1  0  0  0  0
  7  8  1  0  0  0  0
  7 18  1  0  0  0  0
  7 19  1  0  0  0  0
  8  9  1  0  0  0  0
  9 10  2  0  0  0  0
  9 20  1  0  0  0  0
M  END
$$$$
