
 OpenBabel03202621362D

 25 26  0  0  1  0  0  0  0  0999 V2000
    0.1432   -2.0408   -0.9772 O   0  0  0  0  0  0  0  0  0  0  0  0
    0.3266   -0.8983   -0.5827 C   0  0  0  0  0  0  0  0  0  0  0  0
   -0.5882    0.2634   -0.8177 C   0  0  0  0  0  0  0  0  0  0  0  0
   -0.1248    1.2567    0.2229 C   0  0  1  0  0  0  0  0  0  0  0  0
   -0.2764    2.7049   -0.1544 C   0  0  0  0  0  0  0  0  0  0  0  0
    0.7153    3.4198   -0.3086 O   0  0  0  0  0  0  0  0  0  0  0  0
   -1.5268    3.1984   -0.2749 O   0  0  0  0  0  0  0  0  0  0  0  0
   -2.9043    2.8099   -0.1269 C   0  0  0  0  0  0  0  0  0  0  0  0
   -3.3356    1.7221    0.5285 C   0  0  0  0  0  0  0  0  0  0  0  0
   -4.7920    1.3791    0.5942 C   0  0  0  0  0  0  0  0  0  0  0  0
   -5.7143    2.4034    0.2253 O   0  0  0  0  0  0  0  0  0  0  0  0
   -5.1949    3.4568   -0.4720 C   0  0  0  0  0  0  0  0  0  0  0  0
   -3.8975    3.7224   -0.7132 C   0  0  0  0  0  0  0  0  0  0  0  0
   -3.3929    4.6776   -1.3606 O   0  5  0  0  0  0  0  0  0  0  0  0
    1.3482    0.8986    0.3266 C   0  0  0  0  0  0  0  0  0  0  0  0
    1.4133   -0.5150    0.1451 O   0  0  0  0  0  0  0  0  0  0  0  0
   -1.6193   -0.0588   -0.6584 H   0  0  0  0  0  0  0  0  0  0  0  0
   -0.4629    0.6261   -1.8413 H   0  0  0  0  0  0  0  0  0  0  0  0
   -0.5758    1.0759    1.2033 H   0  0  0  0  0  0  0  0  0  0  0  0
   -2.6753    1.0369    1.0279 H   0  0  0  0  0  0  0  0  0  0  0  0
   -4.9819    0.5116   -0.0492 H   0  0  0  0  0  0  0  0  0  0  0  0
   -5.0431    1.0804    1.6175 H   0  0  0  0  0  0  0  0  0  0  0  0
   -5.9825    4.1117   -0.8220 H   0  0  0  0  0  0  0  0  0  0  0  0
    1.7608    1.1588    1.3068 H   0  0  0  0  0  0  0  0  0  0  0  0
    1.9792    1.3594   -0.4424 H   0  0  0  0  0  0  0  0  0  0  0  0
  1  2  2  0  0  0  0
  2 16  1  0  0  0  0
  2  3  1  0  0  0  0
  3  4  1  0  0  0  0
  3 17  1  0  0  0  0
  3 18  1  0  0  0  0
  4  5  1  0  0  0  0
  4 15  1  0  0  0  0
  4 19  1  6  0  0  0
  5  6  2  0  0  0  0
  5  7  1  0  0  0  0
  7  8  1  0  0  0  0
  8 13  1  0  0  0  0
  8  9  2  0  0  0  0
  9 10  1  0  0  0  0
  9 20  1  0  0  0  0
 10 11  1  0  0  0  0
 10 21  1  0  0  0  0
 10 22  1  0  0  0  0
 11 12  1  0  0  0  0
 12 13  2  0  0  0  0
 12 23  1  0  0  0  0
 13 14  1  0  0  0  0
 15 16  1  0  0  0  0
 15 24  1  0  0  0  0
 15 25  1  0  0  0  0
M  CHG  1  14  -1
M  END
$$$$
