
 OpenBabel03202621342D

 31 31  0  0  1  0  0  0  0  0999 V2000
   -0.8660   -1.5000    0.0000 C   0  0  0  0  0  0  0  0  0  0  0  0
    0.0000   -2.0000    0.0000 S   0  0  0  0  0  0  0  0  0  0  0  0
    0.9024   -1.0363   -1.0589 C   0  0  2  0  0  0  0  0  0  0  0  0
    0.9090    0.6309   -0.7762 C   0  0  0  0  0  0  0  0  0  0  0  0
    2.1207    1.3672   -0.6066 C   0  0  0  0  0  0  0  0  0  0  0  0
    2.1623    2.7046   -0.1791 C   0  0  0  0  0  0  0  0  0  0  0  0
    0.9785    3.3964    0.0522 C   0  0  0  0  0  0  0  0  0  0  0  0
   -0.2229    2.7334   -0.1610 C   0  0  0  0  0  0  0  0  0  0  0  0
   -0.2637    1.3785   -0.5715 C   0  0  0  0  0  0  0  0  0  0  0  0
    1.7321   -2.0000    0.0000 C   0  0  0  0  0  0  0  0  0  0  0  0
    2.2321   -1.1340    0.0000 O   0  0  0  0  0  0  0  0  0  0  0  0
    3.3701   -2.6592   -0.2332 C   0  0  0  0  0  0  0  0  0  0  0  0
    4.4172   -1.7366   -0.3095 N   0  0  0  0  0  0  0  0  0  0  0  0
    3.7208   -3.8457   -0.1896 O   0  0  0  0  0  0  0  0  0  0  0  0
    1.2321   -2.8660    0.0000 C   0  0  0  0  0  0  0  0  0  0  0  0
    1.3307   -3.7529    1.2163 N   0  0  0  0  0  0  0  0  0  0  0  0
    1.1993   -3.7018   -1.0041 O   0  0  0  0  0  0  0  0  0  0  0  0
   -0.9078   -1.2094    1.0709 H   0  0  0  0  0  0  0  0  0  0  0  0
   -1.5637   -2.3509   -0.1359 H   0  0  0  0  0  0  0  0  0  0  0  0
   -1.7926   -0.9650    0.0000 H   0  0  0  0  0  0  0  0  0  0  0  0
    0.9899   -1.2885   -2.1217 H   0  0  0  0  0  0  0  0  0  0  0  0
    3.1020    0.9295   -0.7410 H   0  0  0  0  0  0  0  0  0  0  0  0
    3.1144    3.2027   -0.0059 H   0  0  0  0  0  0  0  0  0  0  0  0
    1.0033    4.4255    0.3896 H   0  0  0  0  0  0  0  0  0  0  0  0
   -1.1552    3.2766    0.0237 H   0  0  0  0  0  0  0  0  0  0  0  0
   -1.2523    0.9533   -0.7007 H   0  0  0  0  0  0  0  0  0  0  0  0
    2.8607   -0.9146   -0.7294 H   0  0  0  0  0  0  0  0  0  0  0  0
    5.3180   -2.2062   -0.2870 H   0  0  0  0  0  0  0  0  0  0  0  0
    4.3620   -0.9941    0.3853 H   0  0  0  0  0  0  0  0  0  0  0  0
    0.9066   -4.6413    0.9651 H   0  0  0  0  0  0  0  0  0  0  0  0
    2.2929   -3.9573    1.4771 H   0  0  0  0  0  0  0  0  0  0  0  0
  1  2  1  0  0  0  0
  1 18  1  0  0  0  0
  1 19  1  0  0  0  0
  1 20  1  0  0  0  0
  3  2  1  0  0  0  0
  3  4  1  0  0  0  0
  3 10  1  0  0  0  0
  3 21  1  1  0  0  0
  4  9  2  0  0  0  0
  4  5  1  0  0  0  0
  5  6  2  0  0  0  0
  5 22  1  0  0  0  0
  6  7  1  0  0  0  0
  6 23  1  0  0  0  0
  7  8  2  0  0  0  0
  7 24  1  0  0  0  0
  8  9  1  0  0  0  0
  8 25  1  0  0  0  0
  9 26  1  0  0  0  0
 10 11  1  0  0  0  0
 10 12  1  0  0  0  0
 10 15  1  0  0  0  0
 11 27  1  0  0  0  0
 12 13  1  0  0  0  0
 12 14  2  0  0  0  0
 13 28  1  0  0  0  0
 13 29  1  0  0  0  0
 15 16  1  0  0  0  0
 15 17  2  0  0  0  0
 16 30  1  0  0  0  0
 16 31  1  0  0  0  0
M  END
$$$$
