
 OpenBabel03202621372D

 30 30  0  0  1  0  0  0  0  0999 V2000
    3.9283    3.1358   -0.1102 C   0  0  0  0  0  0  0  0  0  0  0  0
    2.5395    3.6543   -1.1673 S   0  0  0  0  0  0  0  0  0  0  0  0
    1.0000    3.0000    0.0000 C   0  0  2  0  0  0  0  0  0  0  0  0
   -0.5504    3.7361   -0.4869 C   0  0  0  0  0  0  0  0  0  0  0  0
   -1.7583    2.9815   -0.4661 O   0  0  0  0  0  0  0  0  0  0  0  0
    1.0000    2.0000    0.0000 C   0  0  2  0  0  0  0  0  0  0  0  0
    0.1340    1.5000    0.0000 C   0  0  0  0  0  0  0  0  0  0  0  0
    1.9000    1.1000   -0.8476 O   0  0  0  0  0  0  0  0  0  0  0  0
    2.1760   -0.2933   -0.4554 C   0  0  0  0  0  0  0  0  0  0  0  0
    1.0490   -1.1532    0.0491 C   0  0  0  0  0  0  0  0  0  0  0  0
    0.8716   -2.6078   -0.3556 C   0  0  0  0  0  0  0  0  0  0  0  0
   -0.2260   -1.6274   -0.6856 C   0  0  0  0  0  0  0  0  0  0  0  0
    3.7676    2.1667    0.3663 H   0  0  0  0  0  0  0  0  0  0  0  0
    4.1031    3.8821    0.6645 H   0  0  0  0  0  0  0  0  0  0  0  0
    4.8283    3.0491   -0.7266 H   0  0  0  0  0  0  0  0  0  0  0  0
    1.0000    4.0700    0.0000 H   0  0  0  0  0  0  0  0  0  0  0  0
   -0.4364    4.1662   -1.4888 H   0  0  0  0  0  0  0  0  0  0  0  0
   -0.7468    4.5461    0.2404 H   0  0  0  0  0  0  0  0  0  0  0  0
   -2.4815    3.5935   -0.6882 H   0  0  0  0  0  0  0  0  0  0  0  0
    1.5683    1.8396    0.9412 H   0  0  0  0  0  0  0  0  0  0  0  0
   -0.0128    1.1224   -1.0499 H   0  0  0  0  0  0  0  0  0  0  0  0
    0.1842    0.8295    0.8873 H   0  0  0  0  0  0  0  0  0  0  0  0
   -0.7926    0.9650    0.0000 H   0  0  0  0  0  0  0  0  0  0  0  0
    2.9298   -0.2388    0.3399 H   0  0  0  0  0  0  0  0  0  0  0  0
    2.6637   -0.7588   -1.3184 H   0  0  0  0  0  0  0  0  0  0  0  0
    0.9581   -1.0316    1.1311 H   0  0  0  0  0  0  0  0  0  0  0  0
    1.4474   -2.9805   -1.1869 H   0  0  0  0  0  0  0  0  0  0  0  0
    0.6111   -3.3612    0.3889 H   0  0  0  0  0  0  0  0  0  0  0  0
   -0.4826   -1.7418   -1.7056 H   0  0  0  0  0  0  0  0  0  0  0  0
   -1.1070   -1.4811   -0.0828 H   0  0  0  0  0  0  0  0  0  0  0  0
  1  2  1  0  0  0  0
  1 13  1  0  0  0  0
  1 14  1  0  0  0  0
  1 15  1  0  0  0  0
  2  3  1  0  0  0  0
  3  4  1  0  0  0  0
  3  6  1  0  0  0  0
  3 16  1  6  0  0  0
  4  5  1  0  0  0  0
  4 17  1  0  0  0  0
  4 18  1  0  0  0  0
  5 19  1  0  0  0  0
  6  7  1  0  0  0  0
  6  8  1  0  0  0  0
  6 20  1  6  0  0  0
  7 21  1  0  0  0  0
  7 22  1  0  0  0  0
  7 23  1  0  0  0  0
  8  9  1  0  0  0  0
  9 10  1  0  0  0  0
  9 24  1  0  0  0  0
  9 25  1  0  0  0  0
 10 12  1  0  0  0  0
 10 11  1  0  0  0  0
 10 26  1  0  0  0  0
 11 12  1  0  0  0  0
 11 27  1  0  0  0  0
 11 28  1  0  0  0  0
 12 29  1  0  0  0  0
 12 30  1  0  0  0  0
M  END
$$$$
