
 OpenBabel03202621402D

 27 28  0  0  0  0  0  0  0  0999 V2000
   -2.4449   -3.0361   -0.0970 O   0  0  0  0  0  0  0  0  0  0  0  0
   -1.6762   -2.0865   -0.1285 C   0  0  0  0  0  0  0  0  0  0  0  0
   -0.2111   -2.2985   -0.1398 C   0  0  0  0  0  0  0  0  0  0  0  0
    0.6872   -1.3039   -0.0776 C   0  0  0  0  0  0  0  0  0  0  0  0
    0.6093    0.2046    0.0145 C   0  0  0  0  0  0  0  0  0  0  0  0
    2.1433    0.1817    0.0258 C   0  0  0  0  0  0  0  0  0  0  0  0
    2.1998   -1.3486   -0.0675 C   0  0  0  0  0  0  0  0  0  0  0  0
   -1.9975   -0.7702   -0.1601 O   0  0  0  0  0  0  0  0  0  0  0  0
   -3.3050   -0.2522   -0.0335 C   0  0  0  0  0  0  0  0  0  0  0  0
   -4.4088   -0.9212    0.3287 C   0  0  0  0  0  0  0  0  0  0  0  0
   -5.6663   -0.4016    0.5062 O   0  0  0  0  0  0  0  0  0  0  0  0
   -5.8787    0.8715   -0.1049 C   0  0  0  0  0  0  0  0  0  0  0  0
   -4.7568    1.8533    0.1468 C   0  0  0  0  0  0  0  0  0  0  0  0
   -3.4363    1.2236   -0.1973 C   0  0  0  0  0  0  0  0  0  0  0  0
   -2.4664    1.9090   -0.5190 O   0  0  0  0  0  0  0  0  0  0  0  0
    0.1128   -3.3322   -0.1887 H   0  0  0  0  0  0  0  0  0  0  0  0
    0.1842    0.7232   -0.8508 H   0  0  0  0  0  0  0  0  0  0  0  0
    0.1657    0.6129    0.9282 H   0  0  0  0  0  0  0  0  0  0  0  0
    2.6017    0.6978   -0.8263 H   0  0  0  0  0  0  0  0  0  0  0  0
    2.5881    0.5905    0.9410 H   0  0  0  0  0  0  0  0  0  0  0  0
    2.6630   -1.8324    0.7983 H   0  0  0  0  0  0  0  0  0  0  0  0
    2.6773   -1.7240   -0.9783 H   0  0  0  0  0  0  0  0  0  0  0  0
   -4.4287   -1.9762    0.5706 H   0  0  0  0  0  0  0  0  0  0  0  0
   -6.0447    0.7206   -1.1762 H   0  0  0  0  0  0  0  0  0  0  0  0
   -6.8116    1.2751    0.3114 H   0  0  0  0  0  0  0  0  0  0  0  0
   -4.9031    2.7437   -0.4739 H   0  0  0  0  0  0  0  0  0  0  0  0
   -4.7193    2.1521    1.1995 H   0  0  0  0  0  0  0  0  0  0  0  0
  1  2  2  0  0  0  0
  2  3  1  0  0  0  0
  2  8  1  0  0  0  0
  3  4  2  0  0  0  0
  3 16  1  0  0  0  0
  4  7  1  0  0  0  0
  4  5  1  0  0  0  0
  5  6  1  0  0  0  0
  5 17  1  0  0  0  0
  5 18  1  0  0  0  0
  6  7  1  0  0  0  0
  6 19  1  0  0  0  0
  6 20  1  0  0  0  0
  7 21  1  0  0  0  0
  7 22  1  0  0  0  0
  8  9  1  0  0  0  0
  9 14  1  0  0  0  0
  9 10  2  0  0  0  0
 10 11  1  0  0  0  0
 10 23  1  0  0  0  0
 11 12  1  0  0  0  0
 12 13  1  0  0  0  0
 12 24  1  0  0  0  0
 12 25  1  0  0  0  0
 13 14  1  0  0  0  0
 13 26  1  0  0  0  0
 13 27  1  0  0  0  0
 14 15  2  0  0  0  0
M  END
$$$$
