
 OpenBabel03202621312D

 46 48  0  0  1  0  0  0  0  0999 V2000
   -3.1429   -1.2811    0.0000 C   0  0  0  0  0  0  0  0  0  0  0  0
   -3.5497   -0.3676    0.0000 C   0  0  0  0  0  0  0  0  0  0  0  0
   -2.5551   -0.4721    0.0000 C   0  0  0  0  0  0  0  0  0  0  0  0
   -5.0981   -0.6439    0.1145 C   0  0  0  0  0  0  0  0  0  0  0  0
   -5.6397   -1.7467    0.1444 O   0  0  0  0  0  0  0  0  0  0  0  0
   -5.8249    0.5203    0.1605 N   0  0  0  0  0  0  0  0  0  0  0  0
   -7.2697    0.3057    0.1311 C   0  0  0  0  0  0  0  0  0  0  0  0
   -8.3917    1.2797    0.1042 C   0  0  2  0  0  0  0  0  0  0  0  0
   -8.5672    2.7717   -0.0387 C   0  0  0  0  0  0  0  0  0  0  0  0
   -8.4543    1.9375   -1.1845 O   0  0  0  0  0  0  0  0  0  0  0  0
   -4.9868    1.5791    0.0832 C   0  0  0  0  0  0  0  0  0  0  0  0
   -5.3210    2.7554    0.0564 O   0  0  0  0  0  0  0  0  0  0  0  0
   -3.6382    1.1188    0.0186 N   0  0  0  0  0  0  0  0  0  0  0  0
   -2.5136    2.1445   -0.3177 C   0  0  0  0  0  0  0  0  0  0  0  0
   -0.8394    1.9829   -0.5552 C   0  0  2  0  0  0  0  0  0  0  0  0
   -0.0334    3.0236    0.2445 C   0  0  0  0  0  0  0  0  0  0  0  0
   -0.7272    4.2772    0.3721 O   0  0  0  0  0  0  0  0  0  0  0  0
   -0.1652    0.7358   -0.9334 O   0  0  0  0  0  0  0  0  0  0  0  0
    0.8710   -0.0149   -0.3299 C   0  0  0  0  0  0  0  0  0  0  0  0
    0.6721   -1.3458   -0.1297 C   0  0  0  0  0  0  0  0  0  0  0  0
    1.5593   -2.3095    0.2774 O   0  0  0  0  0  0  0  0  0  0  0  0
    2.9287   -1.9780    0.0772 C   0  0  0  0  0  0  0  0  0  0  0  0
    3.2146   -0.5200   -0.0283 C   0  0  0  0  0  0  0  0  0  0  0  0
    2.2840    0.4360   -0.2267 C   0  0  0  0  0  0  0  0  0  0  0  0
    2.4884    1.6630   -0.3778 O   0  5  0  0  0  0  0  0  0  0  0  0
   -3.6343   -1.7997   -0.9424 H   0  0  0  0  0  0  0  0  0  0  0  0
   -3.5556   -1.7878    0.9938 H   0  0  0  0  0  0  0  0  0  0  0  0
   -2.7076   -2.2586    0.0000 H   0  0  0  0  0  0  0  0  0  0  0  0
   -2.2475   -0.0107   -1.0545 H   0  0  0  0  0  0  0  0  0  0  0  0
   -2.1794    0.0979    0.9741 H   0  0  0  0  0  0  0  0  0  0  0  0
   -1.4910   -0.5839    0.0000 H   0  0  0  0  0  0  0  0  0  0  0  0
   -7.4740   -0.3514    0.9916 H   0  0  0  0  0  0  0  0  0  0  0  0
   -7.4460   -0.3384   -0.7460 H   0  0  0  0  0  0  0  0  0  0  0  0
   -9.2928    0.7518    0.4155 H   0  0  0  0  0  0  0  0  0  0  0  0
   -9.5631    3.1684    0.1488 H   0  0  0  0  0  0  0  0  0  0  0  0
   -7.7685    3.4451    0.2263 H   0  0  0  0  0  0  0  0  0  0  0  0
   -2.6678    2.9400    0.4220 H   0  0  0  0  0  0  0  0  0  0  0  0
   -2.8771    2.5717   -1.2623 H   0  0  0  0  0  0  0  0  0  0  0  0
   -0.8177    2.4581   -1.5484 H   0  0  0  0  0  0  0  0  0  0  0  0
    0.8670    3.2837   -0.3100 H   0  0  0  0  0  0  0  0  0  0  0  0
    0.2357    2.6696    1.2422 H   0  0  0  0  0  0  0  0  0  0  0  0
   -0.0154    4.9403    0.4372 H   0  0  0  0  0  0  0  0  0  0  0  0
   -0.2489   -1.8773   -0.2948 H   0  0  0  0  0  0  0  0  0  0  0  0
    3.2550   -2.4859   -0.8388 H   0  0  0  0  0  0  0  0  0  0  0  0
    3.4931   -2.4202    0.9049 H   0  0  0  0  0  0  0  0  0  0  0  0
    4.2608   -0.2369    0.0154 H   0  0  0  0  0  0  0  0  0  0  0  0
  1  2  1  0  0  0  0
  1 26  1  0  0  0  0
  1 27  1  0  0  0  0
  1 28  1  0  0  0  0
  2 13  1  0  0  0  0
  2  3  1  0  0  0  0
  2  4  1  0  0  0  0
  3 29  1  0  0  0  0
  3 30  1  0  0  0  0
  3 31  1  0  0  0  0
  4  5  2  0  0  0  0
  4  6  1  0  0  0  0
  6  7  1  0  0  0  0
  6 11  1  0  0  0  0
  7 32  1  0  0  0  0
  7 33  1  0  0  0  0
  8  7  1  0  0  0  0
  8  9  1  0  0  0  0
  8 10  1  0  0  0  0
  8 34  1  6  0  0  0
  9 10  1  0  0  0  0
  9 35  1  0  0  0  0
  9 36  1  0  0  0  0
 11 12  2  0  0  0  0
 11 13  1  0  0  0  0
 13 14  1  0  0  0  0
 14 37  1  0  0  0  0
 14 38  1  0  0  0  0
 15 14  1  0  0  0  0
 15 16  1  0  0  0  0
 15 18  1  0  0  0  0
 15 39  1  1  0  0  0
 16 17  1  0  0  0  0
 16 40  1  0  0  0  0
 16 41  1  0  0  0  0
 17 42  1  0  0  0  0
 18 19  1  0  0  0  0
 19 24  1  0  0  0  0
 19 20  2  0  0  0  0
 20 21  1  0  0  0  0
 20 43  1  0  0  0  0
 21 22  1  0  0  0  0
 22 23  1  0  0  0  0
 22 44  1  0  0  0  0
 22 45  1  0  0  0  0
 23 24  2  0  0  0  0
 23 46  1  0  0  0  0
 24 25  1  0  0  0  0
M  CHG  1  25  -1
M  END
$$$$
