
 OpenBabel03202621302D

 31 30  0  0  1  0  0  0  0  0999 V2000
    2.5981    1.5000    0.0000 C   0  0  0  0  0  0  0  0  0  0  0  0
    2.5981    2.5000    0.0000 C   0  0  2  0  0  0  0  0  0  0  0  0
    3.7710    2.8841   -0.9465 O   0  0  0  0  0  0  0  0  0  0  0  0
    1.7321    3.0000    0.0000 C   0  0  2  0  0  0  0  0  0  0  0  0
    1.7321    4.0000    0.0000 C   0  0  0  0  0  0  0  0  0  0  0  0
    0.6494    2.2364   -1.3118 S   0  0  0  0  0  0  0  0  0  0  0  0
    0.0000    3.0000    0.0000 C   0  0  2  0  0  0  0  0  0  0  0  0
    0.0000    4.0000    0.0000 C   0  0  0  0  0  0  0  0  0  0  0  0
   -1.5878    2.3161   -0.1768 C   0  0  1  0  0  0  0  0  0  0  0  0
   -2.7719    3.2438    0.1830 C   0  0  0  0  0  0  0  0  0  0  0  0
   -1.8799    0.7971    0.8638 S   0  0  0  0  0  0  0  0  0  0  0  0
   -0.8384   -0.3886    0.1298 C   0  0  0  0  0  0  0  0  0  0  0  0
   -1.1958   -1.5448   -0.0477 O   0  0  0  0  0  0  0  0  0  0  0  0
    2.1421    1.2340    1.0157 H   0  0  0  0  0  0  0  0  0  0  0  0
    3.6862    1.2101    0.1157 H   0  0  0  0  0  0  0  0  0  0  0  0
    2.5981    0.4300    0.0000 H   0  0  0  0  0  0  0  0  0  0  0  0
    3.1651    2.7808    0.9415 H   0  0  0  0  0  0  0  0  0  0  0  0
    4.5919    2.8883   -0.4173 H   0  0  0  0  0  0  0  0  0  0  0  0
    1.8863    3.1877   -1.1390 H   0  0  0  0  0  0  0  0  0  0  0  0
    1.9556    4.2353    1.1047 H   0  0  0  0  0  0  0  0  0  0  0  0
    2.6352    4.4796   -0.5669 H   0  0  0  0  0  0  0  0  0  0  0  0
    1.7321    5.0700    0.0000 H   0  0  0  0  0  0  0  0  0  0  0  0
    0.1312    2.4743    0.9953 H   0  0  0  0  0  0  0  0  0  0  0  0
   -0.5584    4.2133    0.9556 H   0  0  0  0  0  0  0  0  0  0  0  0
   -0.6755    4.2601   -0.8642 H   0  0  0  0  0  0  0  0  0  0  0  0
    0.0000    5.0700    0.0000 H   0  0  0  0  0  0  0  0  0  0  0  0
   -1.7879    2.0280   -1.2238 H   0  0  0  0  0  0  0  0  0  0  0  0
   -2.7264    4.1962   -0.3516 H   0  0  0  0  0  0  0  0  0  0  0  0
   -3.7222    2.7796   -0.1174 H   0  0  0  0  0  0  0  0  0  0  0  0
   -2.8210    3.4561    1.2551 H   0  0  0  0  0  0  0  0  0  0  0  0
    0.2047   -0.1006   -0.1095 H   0  0  0  0  0  0  0  0  0  0  0  0
  1 14  1  0  0  0  0
  1 15  1  0  0  0  0
  1 16  1  0  0  0  0
  2  1  1  0  0  0  0
  2  3  1  0  0  0  0
  2  4  1  0  0  0  0
  2 17  1  6  0  0  0
  3 18  1  0  0  0  0
  4  5  1  0  0  0  0
  4  6  1  0  0  0  0
  4 19  1  6  0  0  0
  5 20  1  0  0  0  0
  5 21  1  0  0  0  0
  5 22  1  0  0  0  0
  6  7  1  0  0  0  0
  7  8  1  0  0  0  0
  7  9  1  0  0  0  0
  7 23  1  6  0  0  0
  8 24  1  0  0  0  0
  8 25  1  0  0  0  0
  8 26  1  0  0  0  0
  9 10  1  0  0  0  0
  9 11  1  0  0  0  0
  9 27  1  1  0  0  0
 10 28  1  0  0  0  0
 10 29  1  0  0  0  0
 10 30  1  0  0  0  0
 11 12  1  0  0  0  0
 12 13  2  0  0  0  0
 12 31  1  0  0  0  0
M  END
$$$$
