
 OpenBabel03202621322D

 23 22  0  0  1  0  0  0  0  0999 V2000
    5.1962   -1.0000    0.0000 C   0  0  0  0  0  0  0  0  0  0  0  0
    5.1962    0.0000    0.0000 C   0  0  0  0  0  0  0  0  0  0  0  0
    4.0282    0.4919    0.7365 O   0  0  0  0  0  0  0  0  0  0  0  0
    2.7205    0.0334    0.3500 C   0  0  0  0  0  0  0  0  0  0  0  0
    1.9681    1.0742   -0.4937 C   0  0  2  0  0  0  0  0  0  0  0  0
    2.0472    2.4952    0.1090 C   0  0  0  0  0  0  0  0  0  0  0  0
    0.7719    3.1980    0.2759 N   0  0  0  0  0  0  0  0  0  0  0  0
    0.6361    0.6146   -0.8376 O   0  0  0  0  0  0  0  0  0  0  0  0
   -0.1820    0.2474    0.1824 C   0  0  0  0  0  0  0  0  0  0  0  0
   -0.6257   -0.8774    0.3125 O   0  0  0  0  0  0  0  0  0  0  0  0
    4.6211   -1.1935   -0.9403 H   0  0  0  0  0  0  0  0  0  0  0  0
    6.2640   -1.1748   -0.2843 H   0  0  0  0  0  0  0  0  0  0  0  0
    5.1962   -2.0700    0.0000 H   0  0  0  0  0  0  0  0  0  0  0  0
    6.0000    0.4951    0.5698 H   0  0  0  0  0  0  0  0  0  0  0  0
    5.2072    0.5896   -0.9340 H   0  0  0  0  0  0  0  0  0  0  0  0
    2.7257   -0.9327   -0.1724 H   0  0  0  0  0  0  0  0  0  0  0  0
    2.1742   -0.1545    1.2803 H   0  0  0  0  0  0  0  0  0  0  0  0
    2.4926    1.1307   -1.4585 H   0  0  0  0  0  0  0  0  0  0  0  0
    2.5666    2.4945    1.0766 H   0  0  0  0  0  0  0  0  0  0  0  0
    2.6767    3.1024   -0.5536 H   0  0  0  0  0  0  0  0  0  0  0  0
    0.9399    4.2002    0.2932 H   0  0  0  0  0  0  0  0  0  0  0  0
    0.1744    3.0205   -0.5383 H   0  0  0  0  0  0  0  0  0  0  0  0
   -0.4581    1.1027    0.8142 H   0  0  0  0  0  0  0  0  0  0  0  0
  1  2  1  0  0  0  0
  1 11  1  0  0  0  0
  1 12  1  0  0  0  0
  1 13  1  0  0  0  0
  2  3  1  0  0  0  0
  2 14  1  0  0  0  0
  2 15  1  0  0  0  0
  3  4  1  0  0  0  0
  4 16  1  0  0  0  0
  4 17  1  0  0  0  0
  5  4  1  0  0  0  0
  5  6  1  0  0  0  0
  5  8  1  0  0  0  0
  5 18  1  6  0  0  0
  6  7  1  0  0  0  0
  6 19  1  0  0  0  0
  6 20  1  0  0  0  0
  7 21  1  0  0  0  0
  7 22  1  0  0  0  0
  8  9  1  0  0  0  0
  9 10  2  0  0  0  0
  9 23  1  0  0  0  0
M  END
$$$$
