
 OpenBabel03202621292D

 29 29  0  0  0  0  0  0  0  0999 V2000
    2.5981   -1.5000    0.0000 C   0  0  0  0  0  0  0  0  0  0  0  0
    2.5981   -0.5000    0.0000 O   0  0  0  0  0  0  0  0  0  0  0  0
    1.3988   -0.2410   -0.6662 C   0  0  0  0  0  0  0  0  0  0  0  0
    1.2550    0.6944   -1.4347 O   0  0  0  0  0  0  0  0  0  0  0  0
    0.2783   -1.2171   -0.3364 C   0  0  0  0  0  0  0  0  0  0  0  0
   -0.1671   -2.1327   -1.2935 C   0  0  0  0  0  0  0  0  0  0  0  0
   -1.1859   -3.0300   -0.9557 C   0  0  0  0  0  0  0  0  0  0  0  0
   -1.7534   -3.0242    0.3293 C   0  0  0  0  0  0  0  0  0  0  0  0
   -2.9519   -3.8747    0.6395 C   0  0  0  0  0  0  0  0  0  0  0  0
   -1.2887   -2.1146    1.2854 C   0  0  0  0  0  0  0  0  0  0  0  0
   -0.2755   -1.2097    0.9592 C   0  0  0  0  0  0  0  0  0  0  0  0
   -0.1470   -0.0756    1.7973 N   0  0  0  0  0  0  0  0  0  0  0  0
   -0.7805    1.1102    1.4402 C   0  0  0  0  0  0  0  0  0  0  0  0
   -0.6102    2.1560    2.0520 O   0  0  0  0  0  0  0  0  0  0  0  0
   -1.7321    1.0000    0.0000 S   0  0  0  0  0  0  0  0  0  0  0  0
   -2.5981    1.5000    0.0000 C   0  0  0  0  0  0  0  0  0  0  0  0
    2.8282   -1.6779    1.0728 H   0  0  0  0  0  0  0  0  0  0  0  0
    3.5409   -1.6799   -0.5605 H   0  0  0  0  0  0  0  0  0  0  0  0
    2.5981   -2.5700    0.0000 H   0  0  0  0  0  0  0  0  0  0  0  0
    0.2524   -2.1320   -2.2965 H   0  0  0  0  0  0  0  0  0  0  0  0
   -1.5628   -3.7161   -1.7127 H   0  0  0  0  0  0  0  0  0  0  0  0
   -3.8540   -3.3949    0.2463 H   0  0  0  0  0  0  0  0  0  0  0  0
   -2.8485   -4.8685    0.1927 H   0  0  0  0  0  0  0  0  0  0  0  0
   -3.0744   -4.0068    1.7185 H   0  0  0  0  0  0  0  0  0  0  0  0
   -1.7807   -2.0412    2.2538 H   0  0  0  0  0  0  0  0  0  0  0  0
    0.7749    0.1502    2.1585 H   0  0  0  0  0  0  0  0  0  0  0  0
   -2.3447    2.2867   -0.7365 H   0  0  0  0  0  0  0  0  0  0  0  0
   -3.2317    0.7459   -0.5044 H   0  0  0  0  0  0  0  0  0  0  0  0
   -3.5247    2.0350    0.0000 H   0  0  0  0  0  0  0  0  0  0  0  0
  1  2  1  0  0  0  0
  1 17  1  0  0  0  0
  1 18  1  0  0  0  0
  1 19  1  0  0  0  0
  2  3  1  0  0  0  0
  3  4  2  0  0  0  0
  3  5  1  0  0  0  0
  5 11  2  0  0  0  0
  5  6  1  0  0  0  0
  6  7  2  0  0  0  0
  6 20  1  0  0  0  0
  7  8  1  0  0  0  0
  7 21  1  0  0  0  0
  8  9  1  0  0  0  0
  8 10  2  0  0  0  0
  9 22  1  0  0  0  0
  9 23  1  0  0  0  0
  9 24  1  0  0  0  0
 10 11  1  0  0  0  0
 10 25  1  0  0  0  0
 11 12  1  0  0  0  0
 12 13  1  0  0  0  0
 12 26  1  0  0  0  0
 13 14  2  0  0  0  0
 13 15  1  0  0  0  0
 15 16  1  0  0  0  0
 16 27  1  0  0  0  0
 16 28  1  0  0  0  0
 16 29  1  0  0  0  0
M  END
$$$$
