
 OpenBabel03202621352D

 23 23  0  0  1  0  0  0  0  0999 V2000
    2.4108    0.3064   -0.4017 N   0  0  0  0  0  0  0  0  0  0  0  0
    1.2187   -0.2801    0.2049 C   0  0  3  0  0  0  0  0  0  0  0  0
    1.0508   -1.7207   -0.2883 C   0  0  0  0  0  0  0  0  0  0  0  0
   -0.2500   -2.3346    0.2190 C   0  0  0  0  0  0  0  0  0  0  0  0
   -1.4592   -1.4907   -0.1888 C   0  0  3  0  0  0  0  0  0  0  0  0
   -2.6269   -2.1041    0.3880 O   0  0  0  0  0  0  0  0  0  0  0  0
   -3.8055   -1.8155   -0.2171 C   0  0  0  0  0  0  0  0  0  0  0  0
   -3.9769   -1.0930   -1.1825 O   0  0  0  0  0  0  0  0  0  0  0  0
   -1.3095   -0.0586    0.3322 C   0  0  0  0  0  0  0  0  0  0  0  0
   -0.0035    0.5837   -0.1292 C   0  0  0  0  0  0  0  0  0  0  0  0
    3.2362   -0.2352   -0.1477 H   0  0  0  0  0  0  0  0  0  0  0  0
    2.5588    1.2485   -0.0415 H   0  0  0  0  0  0  0  0  0  0  0  0
    1.3541   -0.2941    1.2938 H   0  0  0  0  0  0  0  0  0  0  0  0
    1.8953   -2.3355    0.0468 H   0  0  0  0  0  0  0  0  0  0  0  0
    1.0540   -1.7484   -1.3861 H   0  0  0  0  0  0  0  0  0  0  0  0
   -0.3615   -3.3544   -0.1695 H   0  0  0  0  0  0  0  0  0  0  0  0
   -0.2168   -2.4353    1.3118 H   0  0  0  0  0  0  0  0  0  0  0  0
   -1.5344   -1.4953   -1.2847 H   0  0  0  0  0  0  0  0  0  0  0  0
   -4.6141   -2.3481    0.3095 H   0  0  0  0  0  0  0  0  0  0  0  0
   -2.1550    0.5544   -0.0020 H   0  0  0  0  0  0  0  0  0  0  0  0
   -1.3609   -0.0580    1.4290 H   0  0  0  0  0  0  0  0  0  0  0  0
   -0.0587    0.7565   -1.2117 H   0  0  0  0  0  0  0  0  0  0  0  0
    0.0965    1.5692    0.3425 H   0  0  0  0  0  0  0  0  0  0  0  0
  1  2  1  0  0  0  0
  1 11  1  0  0  0  0
  1 12  1  0  0  0  0
  2 10  1  0  0  0  0
  2  3  1  0  0  0  0
  2 13  1  0  0  0  0
  3  4  1  0  0  0  0
  3 14  1  0  0  0  0
  3 15  1  0  0  0  0
  4  5  1  0  0  0  0
  4 16  1  0  0  0  0
  4 17  1  0  0  0  0
  5  6  1  0  0  0  0
  5  9  1  0  0  0  0
  5 18  1  0  0  0  0
  6  7  1  0  0  0  0
  7  8  2  0  0  0  0
  7 19  1  0  0  0  0
  9 10  1  0  0  0  0
  9 20  1  0  0  0  0
  9 21  1  0  0  0  0
 10 22  1  0  0  0  0
 10 23  1  0  0  0  0
M  END
$$$$
