
 OpenBabel03202621282D

 10 10  0  0  1  0  0  0  0  0999 V2000
    2.5543    1.2586    0.0000 C   0  0  0  0  0  0  0  0  0  0  0  0
    1.6207    1.6170    0.0000 S   0  0  0  0  0  0  0  0  0  0  0  0
    0.8436    0.9877    0.0000 C   0  0  0  0  0  0  0  0  0  0  0  0
   -0.0900    1.3461    0.0000 O   0  0  0  0  0  0  0  0  0  0  0  0
    1.0000   -0.0000    0.0000 C   0  0  2  0  0  0  0  0  0  0  0  0
    1.9991   -0.0432    0.0000 C   0  0  0  0  0  0  0  0  0  0  0  0
    1.3090   -0.9511    0.0000 C   0  0  0  0  0  0  0  0  0  0  0  0
    0.5000   -1.5388    0.0000 C   0  0  0  0  0  0  0  0  0  0  0  0
   -0.3090   -0.9511    0.0000 C   0  0  0  0  0  0  0  0  0  0  0  0
   -0.0000   -0.0000    0.0000 O   0  0  0  0  0  0  0  0  0  0  0  0
  1  2  1  0  0  0  0
  2  3  1  0  0  0  0
  3  4  2  0  0  0  0
  3  5  1  0  0  0  0
  5 10  1  0  0  0  0
  5  6  1  1  0  0  0
  5  7  1  0  0  0  0
  7  8  1  0  0  0  0
  8  9  1  0  0  0  0
  9 10  1  0  0  0  0
M  END
$$$$
