
 OpenBabel03202621362D

 33 34  0  0  1  0  0  0  0  0999 V2000
   -0.0933   -1.7796    0.0000 C   0  0  0  0  0  0  0  0  0  0  0  0
   -0.5000   -0.8660    0.0000 C   0  0  0  0  0  0  0  0  0  0  0  0
   -0.8250   -0.0659    1.0936 C   0  0  0  0  0  0  0  0  0  0  0  0
   -0.9789    1.1915    0.5496 N   0  0  0  0  0  0  0  0  0  0  0  0
   -2.3124    1.7434    0.3731 C   0  0  0  0  0  0  0  0  0  0  0  0
   -2.9231    1.1098   -0.9085 C   0  0  2  0  0  0  0  0  0  0  0  0
   -2.8202   -0.3190   -1.0110 O   0  0  0  0  0  0  0  0  0  0  0  0
   -3.4889   -0.9985    0.0463 C   0  0  2  0  0  0  0  0  0  0  0  0
   -3.1938   -2.3995   -0.1048 O   0  0  0  0  0  0  0  0  0  0  0  0
   -5.0468   -0.6636    0.0000 C   0  0  2  0  0  0  0  0  0  0  0  0
   -5.7258   -1.0483    1.3483 O   0  0  0  0  0  0  0  0  0  0  0  0
   -5.0468    0.3364    0.0000 C   0  0  2  0  0  0  0  0  0  0  0  0
   -5.1209    1.1737    1.2992 N   0  0  0  0  0  0  0  0  0  0  0  0
   -6.2338    1.7271    1.5307 N   0  3  0  0  0  0  0  0  0  0  0  0
   -7.2482    2.2040    1.7368 N   0  5  0  0  0  0  0  0  0  0  0  0
   -4.3927    1.3092   -1.0381 C   0  0  1  0  0  0  0  0  0  0  0  0
   -4.7727    2.6721   -0.8429 O   0  0  0  0  0  0  0  0  0  0  0  0
   -0.1866    1.2927   -0.5284 N   0  0  0  0  0  0  0  0  0  0  0  0
   -0.1114    0.0610   -1.0034 N   0  0  0  0  0  0  0  0  0  0  0  0
   -0.5058   -2.1667   -0.9608 H   0  0  0  0  0  0  0  0  0  0  0  0
    0.9949   -1.5369   -0.0931 H   0  0  0  0  0  0  0  0  0  0  0  0
    0.3419   -2.7571    0.0000 H   0  0  0  0  0  0  0  0  0  0  0  0
   -1.0496   -0.2860    2.1292 H   0  0  0  0  0  0  0  0  0  0  0  0
   -2.2217    2.8317    0.3003 H   0  0  0  0  0  0  0  0  0  0  0  0
   -2.8374    1.5124    1.3018 H   0  0  0  0  0  0  0  0  0  0  0  0
   -2.4244    1.5469   -1.7819 H   0  0  0  0  0  0  0  0  0  0  0  0
   -3.1151   -0.7427    1.0429 H   0  0  0  0  0  0  0  0  0  0  0  0
   -3.3860   -2.8088    0.7564 H   0  0  0  0  0  0  0  0  0  0  0  0
   -5.0468   -1.7336    0.0000 H   0  0  0  0  0  0  0  0  0  0  0  0
   -6.6720   -1.1766    1.1468 H   0  0  0  0  0  0  0  0  0  0  0  0
   -6.0739    0.5311   -0.3768 H   0  0  0  0  0  0  0  0  0  0  0  0
   -4.7210    1.0232   -2.0483 H   0  0  0  0  0  0  0  0  0  0  0  0
   -4.2841    3.2230   -1.4813 H   0  0  0  0  0  0  0  0  0  0  0  0
  1  2  1  0  0  0  0
  1 20  1  0  0  0  0
  1 21  1  0  0  0  0
  1 22  1  0  0  0  0
  2 19  1  0  0  0  0
  2  3  2  0  0  0  0
  3  4  1  0  0  0  0
  3 23  1  0  0  0  0
  4  5  1  0  0  0  0
  4 18  1  0  0  0  0
  5 24  1  0  0  0  0
  5 25  1  0  0  0  0
  6  5  1  0  0  0  0
  6  7  1  0  0  0  0
  6 16  1  0  0  0  0
  6 26  1  1  0  0  0
  7  8  1  0  0  0  0
  8  9  1  0  0  0  0
  8 10  1  0  0  0  0
  8 27  1  1  0  0  0
  9 28  1  0  0  0  0
 10 11  1  0  0  0  0
 10 12  1  0  0  0  0
 10 29  1  1  0  0  0
 11 30  1  0  0  0  0
 12 13  1  0  0  0  0
 12 16  1  0  0  0  0
 12 31  1  1  0  0  0
 13 14  2  0  0  0  0
 14 15  2  0  0  0  0
 16 17  1  0  0  0  0
 16 32  1  6  0  0  0
 17 33  1  0  0  0  0
 18 19  2  0  0  0  0
M  CHG  2  14   1  15  -1
M  END
$$$$
