
 OpenBabel03202621312D

 33 35  0  0  0  0  0  0  0  0999 V2000
   -0.0933   -1.7796    0.0000 C   0  0  0  0  0  0  0  0  0  0  0  0
   -0.5000   -0.8660    0.0000 C   0  0  0  0  0  0  0  0  0  0  0  0
   -1.5838   -0.4752    0.7442 C   0  0  0  0  0  0  0  0  0  0  0  0
   -1.5951    0.8731    0.6121 N   0  0  0  0  0  0  0  0  0  0  0  0
   -2.7541    1.6168    0.2264 C   0  0  0  0  0  0  0  0  0  0  0  0
   -3.8531    0.6739   -0.2693 C   0  0  0  0  0  0  0  0  0  0  0  0
   -5.1378    1.3049   -0.4299 N   0  0  0  0  0  0  0  0  0  0  0  0
   -6.2697    0.5388   -0.2682 C   0  0  0  0  0  0  0  0  0  0  0  0
   -7.4808    1.1062   -0.1785 C   0  0  0  0  0  0  0  0  0  0  0  0
   -7.5614    2.5716   -0.1566 C   0  0  0  0  0  0  0  0  0  0  0  0
   -8.7513    3.2463    0.0628 C   0  0  0  0  0  0  0  0  0  0  0  0
   -8.7540    4.6441    0.1824 C   0  0  0  0  0  0  0  0  0  0  0  0
   -7.5564    5.3727    0.1356 C   0  0  0  0  0  0  0  0  0  0  0  0
   -6.3730    4.7149   -0.1019 C   0  0  0  0  0  0  0  0  0  0  0  0
   -6.4036    3.3332   -0.3073 C   0  0  0  0  0  0  0  0  0  0  0  0
   -5.1625    2.6693   -0.6656 C   0  0  0  0  0  0  0  0  0  0  0  0
   -4.2267    3.3514   -1.0704 O   0  0  0  0  0  0  0  0  0  0  0  0
   -0.4124    1.3325    0.2029 N   0  0  0  0  0  0  0  0  0  0  0  0
    0.2199    0.2906   -0.2888 N   0  0  0  0  0  0  0  0  0  0  0  0
   -0.7937   -2.2767   -0.7163 H   0  0  0  0  0  0  0  0  0  0  0  0
    0.8548   -1.6201   -0.5732 H   0  0  0  0  0  0  0  0  0  0  0  0
    0.3419   -2.7571    0.0000 H   0  0  0  0  0  0  0  0  0  0  0  0
   -2.3519   -1.0558    1.2378 H   0  0  0  0  0  0  0  0  0  0  0  0
   -2.4115    2.2580   -0.5934 H   0  0  0  0  0  0  0  0  0  0  0  0
   -3.0509    2.2320    1.0817 H   0  0  0  0  0  0  0  0  0  0  0  0
   -3.5699    0.1636   -1.1981 H   0  0  0  0  0  0  0  0  0  0  0  0
   -4.0223   -0.0987    0.4918 H   0  0  0  0  0  0  0  0  0  0  0  0
   -6.1500   -0.5400   -0.1993 H   0  0  0  0  0  0  0  0  0  0  0  0
   -8.3674    0.5101   -0.0279 H   0  0  0  0  0  0  0  0  0  0  0  0
   -9.6882    2.7019    0.1412 H   0  0  0  0  0  0  0  0  0  0  0  0
   -9.6858    5.1711    0.3230 H   0  0  0  0  0  0  0  0  0  0  0  0
   -7.5531    6.4510    0.2637 H   0  0  0  0  0  0  0  0  0  0  0  0
   -5.4248    5.2522   -0.1328 H   0  0  0  0  0  0  0  0  0  0  0  0
  1  2  1  0  0  0  0
  1 20  1  0  0  0  0
  1 21  1  0  0  0  0
  1 22  1  0  0  0  0
  2 19  1  0  0  0  0
  2  3  2  0  0  0  0
  3  4  1  0  0  0  0
  3 23  1  0  0  0  0
  4  5  1  0  0  0  0
  4 18  1  0  0  0  0
  5  6  1  0  0  0  0
  5 24  1  0  0  0  0
  5 25  1  0  0  0  0
  6  7  1  0  0  0  0
  6 26  1  0  0  0  0
  6 27  1  0  0  0  0
  7 16  1  0  0  0  0
  7  8  1  0  0  0  0
  8  9  2  0  0  0  0
  8 28  1  0  0  0  0
  9 10  1  0  0  0  0
  9 29  1  0  0  0  0
 10 15  2  0  0  0  0
 10 11  1  0  0  0  0
 11 12  2  0  0  0  0
 11 30  1  0  0  0  0
 12 13  1  0  0  0  0
 12 31  1  0  0  0  0
 13 14  2  0  0  0  0
 13 32  1  0  0  0  0
 14 15  1  0  0  0  0
 14 33  1  0  0  0  0
 15 16  1  0  0  0  0
 16 17  2  0  0  0  0
 18 19  2  0  0  0  0
M  END
$$$$
