
 OpenBabel03202621382D

 38 38  0  0  1  0  0  0  0  0999 V2000
    0.2050   -3.9300   -2.7527 C   0  0  0  0  0  0  0  0  0  0  0  0
    1.2379   -4.4837   -1.7619 C   0  0  0  0  0  0  0  0  0  0  0  0
    2.3314   -3.5718   -1.7539 O   0  0  0  0  0  0  0  0  0  0  0  0
    2.6555   -3.1106   -0.4735 C   0  0  0  0  0  0  0  0  0  0  0  0
    3.3236   -3.8110    0.2975 O   0  0  0  0  0  0  0  0  0  0  0  0
    1.8660   -1.5000    0.0000 C   0  0  1  0  0  0  0  0  0  0  0  0
    2.3660   -0.6340    0.0000 S   0  0  0  0  0  0  0  0  0  0  0  0
    3.3660   -0.6340    0.0000 C   0  0  0  0  0  0  0  0  0  0  0  0
    0.8660   -1.5000    0.0000 C   0  0  2  0  0  0  0  0  0  0  0  0
    0.8660   -2.5000    0.0000 O   0  0  0  0  0  0  0  0  0  0  0  0
   -0.1340   -1.5000    0.0000 C   0  0  0  0  0  0  0  0  0  0  0  0
   -0.6340   -2.3660    0.0000 C   0  0  0  0  0  0  0  0  0  0  0  0
    0.8660   -0.5000    0.0000 C   0  0  0  0  0  0  0  0  0  0  0  0
    1.2843    1.2146   -0.3727 C   0  0  0  0  0  0  0  0  0  0  0  0
    0.9778    2.6639   -0.1695 C   0  0  0  0  0  0  0  0  0  0  0  0
   -0.2684    3.0414    0.1764 C   0  0  0  0  0  0  0  0  0  0  0  0
   -1.0931    1.9724    0.2473 C   0  0  0  0  0  0  0  0  0  0  0  0
   -0.5427    0.5670    0.1836 C   0  0  0  0  0  0  0  0  0  0  0  0
    0.6820   -3.7746   -3.7192 H   0  0  0  0  0  0  0  0  0  0  0  0
   -0.6555   -4.6008   -2.8594 H   0  0  0  0  0  0  0  0  0  0  0  0
   -0.1478   -2.9555   -2.4422 H   0  0  0  0  0  0  0  0  0  0  0  0
    0.7839   -4.6717   -0.7908 H   0  0  0  0  0  0  0  0  0  0  0  0
    1.5933   -5.4702   -2.1195 H   0  0  0  0  0  0  0  0  0  0  0  0
    2.9360   -1.5000    0.0000 H   0  0  0  0  0  0  0  0  0  0  0  0
    3.6109   -0.2011   -1.0269 H   0  0  0  0  0  0  0  0  0  0  0  0
    3.5795    0.1985    0.7294 H   0  0  0  0  0  0  0  0  0  0  0  0
    4.4360   -0.6340    0.0000 H   0  0  0  0  0  0  0  0  0  0  0  0
    1.0327   -3.0261    0.8645 H   0  0  0  0  0  0  0  0  0  0  0  0
   -0.5932   -1.1330   -1.0513 H   0  0  0  0  0  0  0  0  0  0  0  0
   -0.6390   -1.1333    1.0273 H   0  0  0  0  0  0  0  0  0  0  0  0
   -1.7109   -2.0645   -0.2519 H   0  0  0  0  0  0  0  0  0  0  0  0
   -0.7805   -2.7110    1.1221 H   0  0  0  0  0  0  0  0  0  0  0  0
   -1.1690   -3.2926    0.0000 H   0  0  0  0  0  0  0  0  0  0  0  0
    2.2414    1.3567   -0.9473 H   0  0  0  0  0  0  0  0  0  0  0  0
    1.7583    3.4025   -0.3500 H   0  0  0  0  0  0  0  0  0  0  0  0
   -0.5845    4.0728    0.2398 H   0  0  0  0  0  0  0  0  0  0  0  0
   -2.1715    2.1188    0.2809 H   0  0  0  0  0  0  0  0  0  0  0  0
   -1.5474    0.0554    0.1204 H   0  0  0  0  0  0  0  0  0  0  0  0
  1  2  1  0  0  0  0
  1 19  1  0  0  0  0
  1 20  1  0  0  0  0
  1 21  1  0  0  0  0
  2  3  1  0  0  0  0
  2 22  1  0  0  0  0
  2 23  1  0  0  0  0
  3  4  1  0  0  0  0
  4  5  2  0  0  0  0
  6  4  1  0  0  0  0
  6  7  1  0  0  0  0
  6  9  1  0  0  0  0
  6 24  1  1  0  0  0
  7  8  1  0  0  0  0
  8 25  1  0  0  0  0
  8 26  1  0  0  0  0
  8 27  1  0  0  0  0
  9 10  1  1  0  0  0
  9 11  1  0  0  0  0
  9 13  1  0  0  0  0
 10 28  1  0  0  0  0
 11 12  1  0  0  0  0
 11 29  1  0  0  0  0
 11 30  1  0  0  0  0
 12 31  1  0  0  0  0
 12 32  1  0  0  0  0
 12 33  1  0  0  0  0
 13 18  2  0  0  0  0
 13 14  1  0  0  0  0
 14 15  2  0  0  0  0
 14 34  1  0  0  0  0
 15 16  1  0  0  0  0
 15 35  1  0  0  0  0
 16 17  2  0  0  0  0
 16 36  1  0  0  0  0
 17 18  1  0  0  0  0
 17 37  1  0  0  0  0
 18 38  1  0  0  0  0
M  END
$$$$
