
 OpenBabel03202621302D

 17 17  0  0  0  0  0  0  0  0999 V2000
    0.2788   -1.7601    0.0000 C   0  0  0  0  0  0  0  0  0  0  0  0
   -0.3090   -0.9511    0.0000 N   0  0  0  0  0  0  0  0  0  0  0  0
   -1.6549   -1.1082    0.1977 N   0  0  0  0  0  0  0  0  0  0  0  0
   -2.2532    0.0702    0.1802 N   0  0  0  0  0  0  0  0  0  0  0  0
   -1.2959    1.0168    0.0674 C   0  0  0  0  0  0  0  0  0  0  0  0
   -0.0532    0.4227    0.0141 C   0  0  0  0  0  0  0  0  0  0  0  0
    1.3018    1.0381   -0.0598 C   0  0  0  0  0  0  0  0  0  0  0  0
    1.2718    2.2715    0.6722 O   0  0  0  0  0  0  0  0  0  0  0  0
    1.1979    3.3992   -0.0738 C   0  0  0  0  0  0  0  0  0  0  0  0
    1.1285    3.4750   -1.2889 O   0  0  0  0  0  0  0  0  0  0  0  0
   -0.2109   -2.4393   -0.7456 H   0  0  0  0  0  0  0  0  0  0  0  0
    1.2044   -1.4300   -0.5275 H   0  0  0  0  0  0  0  0  0  0  0  0
    0.9077   -2.6257    0.0000 H   0  0  0  0  0  0  0  0  0  0  0  0
   -1.5420    2.0708    0.0557 H   0  0  0  0  0  0  0  0  0  0  0  0
    2.0481    0.4099    0.4368 H   0  0  0  0  0  0  0  0  0  0  0  0
    1.6196    1.1672   -1.1004 H   0  0  0  0  0  0  0  0  0  0  0  0
    1.1946    4.2709    0.5999 H   0  0  0  0  0  0  0  0  0  0  0  0
  1  2  1  0  0  0  0
  1 11  1  0  0  0  0
  1 12  1  0  0  0  0
  1 13  1  0  0  0  0
  2  6  1  0  0  0  0
  2  3  1  0  0  0  0
  3  4  2  0  0  0  0
  4  5  1  0  0  0  0
  5  6  2  0  0  0  0
  5 14  1  0  0  0  0
  6  7  1  0  0  0  0
  7  8  1  0  0  0  0
  7 15  1  0  0  0  0
  7 16  1  0  0  0  0
  8  9  1  0  0  0  0
  9 10  2  0  0  0  0
  9 17  1  0  0  0  0
M  END
$$$$
