
 OpenBabel03202621392D

 33 34  0  0  1  0  0  0  0  0999 V2000
   -0.5507   -1.6948    0.0000 C   0  0  0  0  0  0  0  0  0  0  0  0
   -0.7071   -0.7071    0.0000 C   0  0  0  0  0  0  0  0  0  0  0  0
   -0.1748    0.0158    1.0614 C   0  0  0  0  0  0  0  0  0  0  0  0
   -0.0512    1.2452    0.5092 N   0  0  0  0  0  0  0  0  0  0  0  0
   -1.1521    2.0847    0.8334 C   0  0  0  0  0  0  0  0  0  0  0  0
   -2.4917    1.3514    0.4896 C   0  0  2  0  0  0  0  0  0  0  0  0
   -3.1216    1.4420    1.8295 O   0  0  0  0  0  0  0  0  0  0  0  0
   -3.2296    0.0387    0.0012 C   0  0  0  0  0  0  0  0  0  0  0  0
   -4.7579    0.3062   -0.1672 C   0  0  0  0  0  0  0  0  0  0  0  0
   -5.1467    1.8099   -0.1976 C   0  0  0  0  0  0  0  0  0  0  0  0
   -3.9807    2.6829    0.0000 N   0  0  0  0  0  0  0  0  0  0  0  0
   -3.9807    3.6829    0.0000 C   0  0  0  0  0  0  0  0  0  0  0  0
   -2.9003    2.1780   -0.7305 C   0  0  0  0  0  0  0  0  0  0  0  0
    0.1527    1.1459   -0.8156 N   0  0  0  0  0  0  0  0  0  0  0  0
   -0.5144    0.0592   -1.1587 N   0  0  0  0  0  0  0  0  0  0  0  0
   -1.3939   -2.0189   -0.6527 H   0  0  0  0  0  0  0  0  0  0  0  0
    0.4171   -1.7756   -0.5617 H   0  0  0  0  0  0  0  0  0  0  0  0
   -0.3834   -2.7516    0.0000 H   0  0  0  0  0  0  0  0  0  0  0  0
    0.0188   -0.1971    2.1051 H   0  0  0  0  0  0  0  0  0  0  0  0
   -0.9672    3.0381    0.3283 H   0  0  0  0  0  0  0  0  0  0  0  0
   -1.0673    2.3453    1.9022 H   0  0  0  0  0  0  0  0  0  0  0  0
   -2.9336    0.5995    2.2724 H   0  0  0  0  0  0  0  0  0  0  0  0
   -2.8931   -0.2966   -0.9944 H   0  0  0  0  0  0  0  0  0  0  0  0
   -3.1217   -0.7998    0.6933 H   0  0  0  0  0  0  0  0  0  0  0  0
   -5.2867   -0.1909    0.6529 H   0  0  0  0  0  0  0  0  0  0  0  0
   -5.1040   -0.1709   -1.0931 H   0  0  0  0  0  0  0  0  0  0  0  0
   -5.6489    2.0360   -1.1512 H   0  0  0  0  0  0  0  0  0  0  0  0
   -5.8911    1.9720    0.5935 H   0  0  0  0  0  0  0  0  0  0  0  0
   -3.1822    3.9017    0.7504 H   0  0  0  0  0  0  0  0  0  0  0  0
   -4.9162    3.9047    0.5654 H   0  0  0  0  0  0  0  0  0  0  0  0
   -3.9807    4.7529    0.0000 H   0  0  0  0  0  0  0  0  0  0  0  0
   -3.1678    1.6568   -1.6638 H   0  0  0  0  0  0  0  0  0  0  0  0
   -2.1791    2.9204   -1.1129 H   0  0  0  0  0  0  0  0  0  0  0  0
  1  2  1  0  0  0  0
  1 16  1  0  0  0  0
  1 17  1  0  0  0  0
  1 18  1  0  0  0  0
  2 15  1  0  0  0  0
  2  3  2  0  0  0  0
  3  4  1  0  0  0  0
  3 19  1  0  0  0  0
  4  5  1  0  0  0  0
  4 14  1  0  0  0  0
  5  6  1  0  0  0  0
  5 20  1  0  0  0  0
  5 21  1  0  0  0  0
  6 13  1  0  0  0  0
  6  7  1  1  0  0  0
  6  8  1  0  0  0  0
  7 22  1  0  0  0  0
  8  9  1  0  0  0  0
  8 23  1  0  0  0  0
  8 24  1  0  0  0  0
  9 10  1  0  0  0  0
  9 25  1  0  0  0  0
  9 26  1  0  0  0  0
 10 11  1  0  0  0  0
 10 27  1  0  0  0  0
 10 28  1  0  0  0  0
 11 12  1  0  0  0  0
 11 13  1  0  0  0  0
 12 29  1  0  0  0  0
 12 30  1  0  0  0  0
 12 31  1  0  0  0  0
 13 32  1  0  0  0  0
 13 33  1  0  0  0  0
 14 15  2  0  0  0  0
M  END
$$$$
