
 OpenBabel03202621402D

 55 56  0  0  1  0  0  0  0  0999 V2000
    2.7753    2.6516    0.0978 C   0  0  0  0  0  0  0  0  0  0  0  0
    2.3218    1.8173    1.1599 O   0  0  0  0  0  0  0  0  0  0  0  0
    2.1885    0.5216    0.7157 C   0  0  0  0  0  0  0  0  0  0  0  0
    3.3035   -0.1539    0.4151 N   0  0  0  0  0  0  0  0  0  0  0  0
    3.1162   -1.4366    0.0639 C   0  0  0  0  0  0  0  0  0  0  0  0
    1.8832   -2.0497   -0.0041 C   0  0  0  0  0  0  0  0  0  0  0  0
    0.7988   -1.2583    0.3131 C   0  0  0  0  0  0  0  0  0  0  0  0
   -0.6010   -1.7739    0.1486 C   0  0  0  0  0  0  0  0  0  0  0  0
   -1.7321   -1.0000    0.0000 C   0  0  0  0  0  0  0  0  0  0  0  0
   -1.7321    0.0000    0.0000 C   0  0  0  0  0  0  0  0  0  0  0  0
   -3.0432   -1.7676   -0.2728 C   0  0  0  0  0  0  0  0  0  0  0  0
   -4.3663   -1.0034   -0.6217 C   0  0  0  0  0  0  0  0  0  0  0  0
   -5.4582   -1.5437   -0.4433 O   0  0  0  0  0  0  0  0  0  0  0  0
   -4.2252    0.4026   -1.1680 C   0  0  2  0  0  0  0  0  0  0  0  0
   -3.4631    0.4405   -2.3598 O   0  0  0  0  0  0  0  0  0  0  0  0
   -5.3817    1.3596   -1.3106 C   0  0  0  0  0  0  0  0  0  0  0  0
   -6.3290    1.0996   -2.0519 O   0  0  0  0  0  0  0  0  0  0  0  0
   -5.2791    2.7306   -0.5814 C   0  0  2  0  0  0  0  0  0  0  0  0
   -3.8240    3.1395   -0.2323 C   0  0  0  0  0  0  0  0  0  0  0  0
   -3.5397    4.6038    0.0714 C   0  0  0  0  0  0  0  0  0  0  0  0
   -4.3109    5.4546   -0.7517 O   0  0  0  0  0  0  0  0  0  0  0  0
   -6.1807    2.8485    0.6380 C   0  0  0  0  0  0  0  0  0  0  0  0
   -6.0467    3.7216    1.4993 O   0  0  0  0  0  0  0  0  0  0  0  0
   -7.4022    2.0363    0.6827 C   0  0  0  0  0  0  0  0  0  0  0  0
   -7.3302    0.6888    1.0375 C   0  0  0  0  0  0  0  0  0  0  0  0
   -8.4450   -0.1239    0.8348 C   0  0  0  0  0  0  0  0  0  0  0  0
   -9.6191    0.4194    0.3063 C   0  0  0  0  0  0  0  0  0  0  0  0
   -9.7000    1.7834    0.0175 C   0  0  0  0  0  0  0  0  0  0  0  0
   -8.5942    2.5966    0.2279 C   0  0  0  0  0  0  0  0  0  0  0  0
   -8.7239    3.9303   -0.0430 O   0  0  0  0  0  0  0  0  0  0  0  0
    0.9498    0.0249    0.7024 N   0  0  0  0  0  0  0  0  0  0  0  0
    3.5133    2.1734   -0.5557 H   0  0  0  0  0  0  0  0  0  0  0  0
    1.9211    2.9938   -0.4949 H   0  0  0  0  0  0  0  0  0  0  0  0
    3.2501    3.5315    0.5428 H   0  0  0  0  0  0  0  0  0  0  0  0
    4.0275   -1.9774   -0.1881 H   0  0  0  0  0  0  0  0  0  0  0  0
    1.7852   -3.0758   -0.3235 H   0  0  0  0  0  0  0  0  0  0  0  0
   -0.6790   -2.8588    0.0950 H   0  0  0  0  0  0  0  0  0  0  0  0
   -1.0267    0.2215   -0.8323 H   0  0  0  0  0  0  0  0  0  0  0  0
   -1.4490    0.2023    1.0562 H   0  0  0  0  0  0  0  0  0  0  0  0
   -1.7321    1.0700    0.0000 H   0  0  0  0  0  0  0  0  0  0  0  0
   -2.8784   -2.4605   -1.1094 H   0  0  0  0  0  0  0  0  0  0  0  0
   -3.2722   -2.3642    0.6215 H   0  0  0  0  0  0  0  0  0  0  0  0
   -3.6846    0.8567   -0.3590 H   0  0  0  0  0  0  0  0  0  0  0  0
   -4.0639    0.1580   -3.0815 H   0  0  0  0  0  0  0  0  0  0  0  0
   -5.6605    3.4516   -1.3203 H   0  0  0  0  0  0  0  0  0  0  0  0
   -3.1782    2.8713   -1.0801 H   0  0  0  0  0  0  0  0  0  0  0  0
   -3.4663    2.5737    0.6380 H   0  0  0  0  0  0  0  0  0  0  0  0
   -2.4792    4.8088   -0.1190 H   0  0  0  0  0  0  0  0  0  0  0  0
   -3.7216    4.8409    1.1246 H   0  0  0  0  0  0  0  0  0  0  0  0
   -5.0694    5.7407   -0.2118 H   0  0  0  0  0  0  0  0  0  0  0  0
   -6.4137    0.2472    1.4188 H   0  0  0  0  0  0  0  0  0  0  0  0
   -8.3862   -1.1890    1.0479 H   0  0  0  0  0  0  0  0  0  0  0  0
  -10.4723   -0.2250    0.1101 H   0  0  0  0  0  0  0  0  0  0  0  0
  -10.6156    2.2056   -0.3854 H   0  0  0  0  0  0  0  0  0  0  0  0
   -8.0718    4.4134    0.5011 H   0  0  0  0  0  0  0  0  0  0  0  0
  1  2  1  0  0  0  0
  1 32  1  0  0  0  0
  1 33  1  0  0  0  0
  1 34  1  0  0  0  0
  2  3  1  0  0  0  0
  3 31  2  0  0  0  0
  3  4  1  0  0  0  0
  4  5  2  0  0  0  0
  5  6  1  0  0  0  0
  5 35  1  0  0  0  0
  6  7  2  0  0  0  0
  6 36  1  0  0  0  0
  7  8  1  0  0  0  0
  7 31  1  0  0  0  0
  8  9  2  3  0  0  0
  8 37  1  0  0  0  0
  9 10  1  0  0  0  0
  9 11  1  0  0  0  0
 10 38  1  0  0  0  0
 10 39  1  0  0  0  0
 10 40  1  0  0  0  0
 11 12  1  0  0  0  0
 11 41  1  0  0  0  0
 11 42  1  0  0  0  0
 12 13  2  0  0  0  0
 12 14  1  0  0  0  0
 14 15  1  0  0  0  0
 14 16  1  0  0  0  0
 14 43  1  6  0  0  0
 15 44  1  0  0  0  0
 16 17  2  0  0  0  0
 16 18  1  0  0  0  0
 18 19  1  0  0  0  0
 18 22  1  0  0  0  0
 18 45  1  6  0  0  0
 19 20  1  0  0  0  0
 19 46  1  0  0  0  0
 19 47  1  0  0  0  0
 20 21  1  0  0  0  0
 20 48  1  0  0  0  0
 20 49  1  0  0  0  0
 21 50  1  0  0  0  0
 22 23  2  0  0  0  0
 22 24  1  0  0  0  0
 24 29  2  0  0  0  0
 24 25  1  0  0  0  0
 25 26  2  0  0  0  0
 25 51  1  0  0  0  0
 26 27  1  0  0  0  0
 26 52  1  0  0  0  0
 27 28  2  0  0  0  0
 27 53  1  0  0  0  0
 28 29  1  0  0  0  0
 28 54  1  0  0  0  0
 29 30  1  0  0  0  0
 30 55  1  0  0  0  0
M  END
$$$$
