
 OpenBabel03202621282D

 10 11  0  0  1  0  0  0  0  0999 V2000
   -1.6737    0.6318    0.0000 C   0  0  0  0  0  0  0  0  0  0  0  0
   -0.8935    0.3121    0.0000 C   0  0  0  0  0  0  0  0  0  0  0  0
   -0.7802   -0.5235    0.0000 N   0  0  0  0  0  0  0  0  0  0  0  0
   -1.4472   -1.0393    0.0000 C   0  0  0  0  0  0  0  0  0  0  0  0
   -1.3340   -1.8749    0.0000 O   0  0  0  0  0  0  0  0  0  0  0  0
   -0.0000   -0.8432    0.0000 C   0  0  3  0  0  0  0  0  0  0  0  0
    0.0000   -0.0000    0.0000 C   0  0  0  0  0  0  0  0  0  0  0  0
    0.3096   -1.1559    0.0000 C   0  0  3  0  0  0  0  0  0  0  0  0
    1.3697   -1.2883    0.0000 C   0  0  0  0  0  0  0  0  0  0  0  0
   -0.3990   -1.7934    0.0000 C   0  0  0  0  0  0  0  0  0  0  0  0
  1  2  1  0  0  0  0
  2  3  1  0  0  0  0
  3  4  1  0  0  0  0
  3  6  1  0  0  0  0
  4  5  2  0  0  0  0
  6  9  1  0  0  0  0
  6 10  1  0  0  0  0
  6  7  1  0  0  0  0
  7  8  1  0  0  0  0
  8  9  1  0  0  0  0
  8 10  1  0  0  0  0
M  END
$$$$
