
 OpenBabel03202621312D

 15 14  0  0  0  0  0  0  0  0999 V2000
    1.7321    0.0000    0.0000 C   0  0  0  0  0  0  0  0  0  0  0  0
    1.7321    1.0000    0.0000 N   0  0  0  0  0  0  0  0  0  0  0  0
    2.8809    1.7921   -0.2099 C   0  0  0  0  0  0  0  0  0  0  0  0
    2.8880    3.0207   -0.2555 O   0  0  0  0  0  0  0  0  0  0  0  0
    0.4757    1.8084    0.0819 C   0  0  0  0  0  0  0  0  0  0  0  0
   -0.8924    1.1367   -0.0528 C   0  0  0  0  0  0  0  0  0  0  0  0
   -1.8646    2.0593    0.1900 F   0  0  0  0  0  0  0  0  0  0  0  0
   -1.0527    0.1679    0.8829 F   0  0  0  0  0  0  0  0  0  0  0  0
    1.2188   -0.1608    0.9761 H   0  0  0  0  0  0  0  0  0  0  0  0
    2.7910   -0.2459    0.2457 H   0  0  0  0  0  0  0  0  0  0  0  0
    1.7321   -1.0700    0.0000 H   0  0  0  0  0  0  0  0  0  0  0  0
    3.8233    1.2277   -0.3338 H   0  0  0  0  0  0  0  0  0  0  0  0
    0.5161    2.3335    1.0463 H   0  0  0  0  0  0  0  0  0  0  0  0
    0.5282    2.5958   -0.6829 H   0  0  0  0  0  0  0  0  0  0  0  0
   -1.0552    0.7087   -1.0440 H   0  0  0  0  0  0  0  0  0  0  0  0
  1  2  1  0  0  0  0
  1  9  1  0  0  0  0
  1 10  1  0  0  0  0
  1 11  1  0  0  0  0
  2  3  1  0  0  0  0
  2  5  1  0  0  0  0
  3  4  2  0  0  0  0
  3 12  1  0  0  0  0
  5  6  1  0  0  0  0
  5 13  1  0  0  0  0
  5 14  1  0  0  0  0
  6  7  1  0  0  0  0
  6  8  1  0  0  0  0
  6 15  1  0  0  0  0
M  END
$$$$
