
 OpenBabel03202621282D

 19 20  0  0  1  0  0  0  0  0999 V2000
    2.1984    2.9485    0.0000 C   0  0  0  0  0  0  0  0  0  0  0  0
    1.2038    2.8440    0.0000 S   0  0  0  0  0  0  0  0  0  0  0  0
    0.7971    1.9305    0.0000 C   0  0  0  0  0  0  0  0  0  0  0  0
   -0.1974    1.8259    0.0000 O   0  0  0  0  0  0  0  0  0  0  0  0
    1.3849    1.1215    0.0000 N   0  0  0  0  0  0  0  0  0  0  0  0
    0.9781    0.2079    0.0000 C   0  0  1  0  0  0  0  0  0  0  0  0
    1.4781   -0.6581    0.0000 C   0  0  0  0  0  0  0  0  0  0  0  0
    0.8090   -1.4013    0.0000 C   0  0  0  0  0  0  0  0  0  0  0  0
    1.0169   -2.3794    0.0000 O   0  0  0  0  0  0  0  0  0  0  0  0
   -0.1045   -0.9945    0.0000 N   0  0  0  0  0  0  0  0  0  0  0  0
   -0.9706   -1.4945    0.0000 C   0  0  0  0  0  0  0  0  0  0  0  0
   -0.9706   -2.4945    0.0000 C   0  0  0  0  0  0  0  0  0  0  0  0
   -1.8366   -2.9945    0.0000 C   0  0  0  0  0  0  0  0  0  0  0  0
   -2.7026   -2.4945    0.0000 C   0  0  0  0  0  0  0  0  0  0  0  0
   -3.5686   -2.9945    0.0000 C   0  0  0  0  0  0  0  0  0  0  0  0
   -2.7026   -1.4945    0.0000 C   0  0  0  0  0  0  0  0  0  0  0  0
   -3.5686   -0.9945    0.0000 C   0  0  0  0  0  0  0  0  0  0  0  0
   -1.8366   -0.9945    0.0000 C   0  0  0  0  0  0  0  0  0  0  0  0
    0.0000   -0.0000    0.0000 C   0  0  0  0  0  0  0  0  0  0  0  0
  1  2  1  0  0  0  0
  2  3  1  0  0  0  0
  3  4  2  0  0  0  0
  3  5  1  0  0  0  0
  6  5  1  1  0  0  0
  6  7  1  0  0  0  0
  6 19  1  0  0  0  0
  7  8  1  0  0  0  0
  8  9  2  0  0  0  0
  8 10  1  0  0  0  0
 10 11  1  0  0  0  0
 10 19  1  0  0  0  0
 11 18  2  0  0  0  0
 11 12  1  0  0  0  0
 12 13  2  0  0  0  0
 13 14  1  0  0  0  0
 14 15  1  0  0  0  0
 14 16  2  0  0  0  0
 16 17  1  0  0  0  0
 16 18  1  0  0  0  0
M  END
$$$$
