
 OpenBabel03202621402D

 30 31  0  0  0  0  0  0  0  0999 V2000
   -0.2554   -3.7961    0.7337 O   0  0  0  0  0  0  0  0  0  0  0  0
    0.5342   -2.9661    0.2779 C   0  0  0  0  0  0  0  0  0  0  0  0
    1.8709   -3.1747    0.5308 N   0  0  0  0  0  0  0  0  0  0  0  0
    2.9896   -2.6918   -0.2424 C   0  0  0  0  0  0  0  0  0  0  0  0
    3.5743   -1.3429    0.1028 C   0  0  0  0  0  0  0  0  0  0  0  0
    2.7848   -0.2499    0.4772 C   0  0  0  0  0  0  0  0  0  0  0  0
    3.3042    1.0484    0.5316 C   0  0  0  0  0  0  0  0  0  0  0  0
    4.6456    1.2601    0.2662 C   0  0  0  0  0  0  0  0  0  0  0  0
    5.1431    2.5047    0.2892 F   0  0  0  0  0  0  0  0  0  0  0  0
    5.4650    0.1789   -0.0391 C   0  0  0  0  0  0  0  0  0  0  0  0
    6.7700    0.3766   -0.2832 F   0  0  0  0  0  0  0  0  0  0  0  0
    4.9419   -1.1072   -0.1289 C   0  0  0  0  0  0  0  0  0  0  0  0
    0.2369   -1.8400   -0.4240 O   0  0  0  0  0  0  0  0  0  0  0  0
   -1.0873   -1.2894   -0.4148 C   0  0  0  0  0  0  0  0  0  0  0  0
   -2.2106   -2.0325   -0.3391 C   0  0  0  0  0  0  0  0  0  0  0  0
   -3.5002   -1.5700   -0.2594 O   0  0  0  0  0  0  0  0  0  0  0  0
   -3.6546   -0.1547   -0.0805 C   0  0  0  0  0  0  0  0  0  0  0  0
   -2.4386    0.6811   -0.3075 C   0  0  0  0  0  0  0  0  0  0  0  0
   -1.2054    0.1807   -0.4968 C   0  0  0  0  0  0  0  0  0  0  0  0
   -0.1338    0.7962   -0.7288 O   0  5  0  0  0  0  0  0  0  0  0  0
    1.9911   -4.0558    1.0067 H   0  0  0  0  0  0  0  0  0  0  0  0
    2.7321   -2.7216   -1.3058 H   0  0  0  0  0  0  0  0  0  0  0  0
    3.7747   -3.4422   -0.0728 H   0  0  0  0  0  0  0  0  0  0  0  0
    1.7210   -0.3643    0.6668 H   0  0  0  0  0  0  0  0  0  0  0  0
    2.6331    1.8807    0.7273 H   0  0  0  0  0  0  0  0  0  0  0  0
    5.6067   -1.9145   -0.4227 H   0  0  0  0  0  0  0  0  0  0  0  0
   -2.2220   -3.1107   -0.3341 H   0  0  0  0  0  0  0  0  0  0  0  0
   -4.0327    0.0156    0.9315 H   0  0  0  0  0  0  0  0  0  0  0  0
   -4.4373    0.1653   -0.7773 H   0  0  0  0  0  0  0  0  0  0  0  0
   -2.5735    1.7551   -0.3237 H   0  0  0  0  0  0  0  0  0  0  0  0
  1  2  2  0  0  0  0
  2  3  1  0  0  0  0
  2 13  1  0  0  0  0
  3  4  1  0  0  0  0
  3 21  1  0  0  0  0
  4  5  1  0  0  0  0
  4 22  1  0  0  0  0
  4 23  1  0  0  0  0
  5 12  2  0  0  0  0
  5  6  1  0  0  0  0
  6  7  2  0  0  0  0
  6 24  1  0  0  0  0
  7  8  1  0  0  0  0
  7 25  1  0  0  0  0
  8  9  1  0  0  0  0
  8 10  2  0  0  0  0
 10 11  1  0  0  0  0
 10 12  1  0  0  0  0
 12 26  1  0  0  0  0
 13 14  1  0  0  0  0
 14 19  1  0  0  0  0
 14 15  2  0  0  0  0
 15 16  1  0  0  0  0
 15 27  1  0  0  0  0
 16 17  1  0  0  0  0
 17 18  1  0  0  0  0
 17 28  1  0  0  0  0
 17 29  1  0  0  0  0
 18 19  2  0  0  0  0
 18 30  1  0  0  0  0
 19 20  1  0  0  0  0
M  CHG  1  20  -1
M  END
$$$$
