
 OpenBabel03202621372D

 20 21  0  0  0  0  0  0  0  0999 V2000
    0.4383   -1.6357    0.0000 C   0  0  0  0  0  0  0  0  0  0  0  0
   -0.2948   -0.9556    0.0000 C   0  0  0  0  0  0  0  0  0  0  0  0
   -1.5197   -1.4017   -0.0000 N   0  0  0  0  0  0  0  0  0  0  0  0
   -2.6921   -0.6702   -0.0000 C   0  0  0  0  0  0  0  0  0  0  0  0
   -3.8355   -1.3520   -0.0000 N   0  0  0  0  0  0  0  0  0  0  0  0
   -4.8236   -0.3800    0.0000 O   0  0  0  0  0  0  0  0  0  0  0  0
   -4.2703    0.8948    0.0000 N   0  0  0  0  0  0  0  0  0  0  0  0
   -2.9522    0.7039   -0.0000 C   0  0  0  0  0  0  0  0  0  0  0  0
   -2.0483    1.7000    0.0000 N   0  0  0  0  0  0  0  0  0  0  0  0
   -0.6748    1.6594   -0.0000 C   0  0  0  0  0  0  0  0  0  0  0  0
    0.1112    3.2541   -0.0000 S   0  0  0  0  0  0  0  0  0  0  0  0
    1.8587    3.0851    0.0000 C   0  0  0  0  0  0  0  0  0  0  0  0
    2.5821    4.0768    0.0000 O   0  0  0  0  0  0  0  0  0  0  0  0
    0.0648    0.5375   -0.0000 C   0  0  0  0  0  0  0  0  0  0  0  0
   -0.0082   -2.6496    0.0000 H   0  0  0  0  0  0  0  0  0  0  0  0
    1.4127   -1.1338    0.0000 H   0  0  0  0  0  0  0  0  0  0  0  0
    1.2227   -2.3634    0.0000 H   0  0  0  0  0  0  0  0  0  0  0  0
   -2.4148    2.6474    0.0000 H   0  0  0  0  0  0  0  0  0  0  0  0
    2.3321    2.0942    0.0000 H   0  0  0  0  0  0  0  0  0  0  0  0
    1.1356    0.6632   -0.0000 H   0  0  0  0  0  0  0  0  0  0  0  0
  1  2  1  0  0  0  0
  1 15  1  0  0  0  0
  1 16  1  0  0  0  0
  1 17  1  0  0  0  0
  2 14  1  0  0  0  0
  2  3  2  0  0  0  0
  3  4  1  0  0  0  0
  4  8  1  0  0  0  0
  4  5  2  0  0  0  0
  5  6  1  0  0  0  0
  6  7  1  0  0  0  0
  7  8  2  0  0  0  0
  8  9  1  0  0  0  0
  9 10  1  0  0  0  0
  9 18  1  0  0  0  0
 10 11  1  0  0  0  0
 10 14  2  0  0  0  0
 11 12  1  0  0  0  0
 12 13  2  0  0  0  0
 12 19  1  0  0  0  0
 14 20  1  0  0  0  0
M  END
$$$$
