
 OpenBabel03202621392D

 25 26  0  0  0  0  0  0  0  0999 V2000
   -0.0933   -1.7796    0.0000 C   0  0  0  0  0  0  0  0  0  0  0  0
   -0.5000   -0.8660    0.0000 C   0  0  0  0  0  0  0  0  0  0  0  0
   -1.7271   -0.5022    0.5481 C   0  0  0  0  0  0  0  0  0  0  0  0
   -2.0378    0.7415    0.0494 N   0  0  0  0  0  0  0  0  0  0  0  0
   -3.2793    1.4219   -0.0328 C   0  0  0  0  0  0  0  0  0  0  0  0
   -3.3610    2.7260   -0.1429 N   0  0  0  0  0  0  0  0  0  0  0  0
   -2.1699    3.4590   -0.0387 O   0  0  0  0  0  0  0  0  0  0  0  0
   -4.6131    0.6913   -0.0242 C   0  0  0  0  0  0  0  0  0  0  0  0
   -4.7453   -0.6714   -0.3377 C   0  0  0  0  0  0  0  0  0  0  0  0
   -6.0007   -1.2958   -0.3224 C   0  0  0  0  0  0  0  0  0  0  0  0
   -7.1444   -0.5551   -0.0426 C   0  0  0  0  0  0  0  0  0  0  0  0
   -7.0255    0.8030    0.2167 C   0  0  0  0  0  0  0  0  0  0  0  0
   -8.1297    1.5231    0.4510 F   0  0  0  0  0  0  0  0  0  0  0  0
   -5.7825    1.4272    0.2336 C   0  0  0  0  0  0  0  0  0  0  0  0
   -0.9356    1.2405   -0.5546 N   0  0  0  0  0  0  0  0  0  0  0  0
   -0.0330    0.2730   -0.6373 N   0  0  0  0  0  0  0  0  0  0  0  0
   -0.4244   -2.1196   -1.0107 H   0  0  0  0  0  0  0  0  0  0  0  0
    0.9925   -1.5230   -0.0302 H   0  0  0  0  0  0  0  0  0  0  0  0
    0.3419   -2.7571    0.0000 H   0  0  0  0  0  0  0  0  0  0  0  0
   -2.4324   -1.0631    1.1470 H   0  0  0  0  0  0  0  0  0  0  0  0
   -1.5010    2.9826   -0.5757 H   0  0  0  0  0  0  0  0  0  0  0  0
   -3.8958   -1.2811   -0.6303 H   0  0  0  0  0  0  0  0  0  0  0  0
   -6.0854   -2.3575   -0.5477 H   0  0  0  0  0  0  0  0  0  0  0  0
   -8.1265   -1.0197   -0.0423 H   0  0  0  0  0  0  0  0  0  0  0  0
   -5.7465    2.4957    0.4356 H   0  0  0  0  0  0  0  0  0  0  0  0
  1  2  1  0  0  0  0
  1 17  1  0  0  0  0
  1 18  1  0  0  0  0
  1 19  1  0  0  0  0
  2 16  1  0  0  0  0
  2  3  2  0  0  0  0
  3  4  1  0  0  0  0
  3 20  1  0  0  0  0
  4  5  1  0  0  0  0
  4 15  1  0  0  0  0
  5  6  2  3  0  0  0
  5  8  1  0  0  0  0
  6  7  1  0  0  0  0
  7 21  1  0  0  0  0
  8 14  2  0  0  0  0
  8  9  1  0  0  0  0
  9 10  2  0  0  0  0
  9 22  1  0  0  0  0
 10 11  1  0  0  0  0
 10 23  1  0  0  0  0
 11 12  2  0  0  0  0
 11 24  1  0  0  0  0
 12 13  1  0  0  0  0
 12 14  1  0  0  0  0
 14 25  1  0  0  0  0
 15 16  2  0  0  0  0
M  END
$$$$
