
 OpenBabel03202621312D

 23 23  0  0  1  0  0  0  0  0999 V2000
    1.1025   -6.1219    0.2437 C   0  0  0  0  0  0  0  0  0  0  0  0
    2.7793   -5.5817   -0.0970 S   0  0  0  0  0  0  0  0  0  0  0  0
    2.7261   -3.8244    0.0480 C   0  0  0  0  0  0  0  0  0  0  0  0
    3.7732   -3.1983   -0.0765 O   0  0  0  0  0  0  0  0  0  0  0  0
    1.3871   -3.1411    0.2577 C   0  0  0  0  0  0  0  0  0  0  0  0
    1.6156   -1.6853    0.6594 C   0  0  0  0  0  0  0  0  0  0  0  0
    0.4499   -0.8995    1.1012 N   0  0  0  0  0  0  0  0  0  0  0  0
   -0.8771   -1.1052    0.5538 C   0  0  0  0  0  0  0  0  0  0  0  0
    0.0000    0.0000    0.0000 C   0  0  2  0  0  0  0  0  0  0  0  0
    0.0000    1.0000    0.0000 C   0  0  0  0  0  0  0  0  0  0  0  0
    0.7602   -5.7749    1.2209 H   0  0  0  0  0  0  0  0  0  0  0  0
    1.0835   -7.2153    0.2600 H   0  0  0  0  0  0  0  0  0  0  0  0
    0.4191   -5.7805   -0.5376 H   0  0  0  0  0  0  0  0  0  0  0  0
    0.8248   -3.1995   -0.6787 H   0  0  0  0  0  0  0  0  0  0  0  0
    0.8292   -3.6347    1.0587 H   0  0  0  0  0  0  0  0  0  0  0  0
    2.3060   -1.6751    1.5133 H   0  0  0  0  0  0  0  0  0  0  0  0
    2.1694   -1.1646   -0.1359 H   0  0  0  0  0  0  0  0  0  0  0  0
   -1.0651   -1.9755   -0.0622 H   0  0  0  0  0  0  0  0  0  0  0  0
   -1.6995   -0.8457    1.2120 H   0  0  0  0  0  0  0  0  0  0  0  0
    0.3360   -0.2877   -1.0065 H   0  0  0  0  0  0  0  0  0  0  0  0
    1.0639    1.1984    0.2748 H   0  0  0  0  0  0  0  0  0  0  0  0
   -0.6643    1.2172    0.8692 H   0  0  0  0  0  0  0  0  0  0  0  0
    0.0000    2.0700    0.0000 H   0  0  0  0  0  0  0  0  0  0  0  0
  1  2  1  0  0  0  0
  1 11  1  0  0  0  0
  1 12  1  0  0  0  0
  1 13  1  0  0  0  0
  2  3  1  0  0  0  0
  3  4  2  0  0  0  0
  3  5  1  0  0  0  0
  5  6  1  0  0  0  0
  5 14  1  0  0  0  0
  5 15  1  0  0  0  0
  6  7  1  0  0  0  0
  6 16  1  0  0  0  0
  6 17  1  0  0  0  0
  7  9  1  0  0  0  0
  7  8  1  0  0  0  0
  8  9  1  0  0  0  0
  8 18  1  0  0  0  0
  8 19  1  0  0  0  0
  9 10  1  0  0  0  0
  9 20  1  1  0  0  0
 10 21  1  0  0  0  0
 10 22  1  0  0  0  0
 10 23  1  0  0  0  0
M  END
$$$$
