
 OpenBabel03202621372D

 36 37  0  0  0  0  0  0  0  0999 V2000
   -0.0933   -1.7796    0.0000 C   0  0  0  0  0  0  0  0  0  0  0  0
   -0.5000   -0.8660    0.0000 C   0  0  0  0  0  0  0  0  0  0  0  0
   -1.2147   -0.1263   -0.9243 C   0  0  0  0  0  0  0  0  0  0  0  0
   -1.5037    1.0656   -0.3017 N   0  0  0  0  0  0  0  0  0  0  0  0
   -2.7011    1.8666   -0.4923 C   0  0  0  0  0  0  0  0  0  0  0  0
   -3.8867    0.9319   -0.3233 C   0  0  0  0  0  0  0  0  0  0  0  0
   -4.9613    1.3891    0.5208 N   0  0  0  0  0  0  0  0  0  0  0  0
   -6.0406    0.6064    0.8306 C   0  0  0  0  0  0  0  0  0  0  0  0
   -6.7653    0.9047    1.7647 O   0  0  0  0  0  0  0  0  0  0  0  0
   -6.2315   -0.4596   -0.0076 N   0  0  0  0  0  0  0  0  0  0  0  0
   -7.3358   -1.3736    0.1632 C   0  0  0  0  0  0  0  0  0  0  0  0
   -8.6889   -0.7857   -0.1442 C   0  0  0  0  0  0  0  0  0  0  0  0
   -9.8310   -1.4854    0.2700 C   0  0  0  0  0  0  0  0  0  0  0  0
  -11.1011   -0.9521    0.0625 C   0  0  0  0  0  0  0  0  0  0  0  0
  -11.2465    0.2830   -0.5655 C   0  0  0  0  0  0  0  0  0  0  0  0
  -10.1237    0.9732   -1.0137 C   0  0  0  0  0  0  0  0  0  0  0  0
   -8.8569    0.4340   -0.8205 C   0  0  0  0  0  0  0  0  0  0  0  0
   -0.8697    1.1648    0.8658 N   0  0  0  0  0  0  0  0  0  0  0  0
   -0.2871    0.0050    1.0814 N   0  0  0  0  0  0  0  0  0  0  0  0
   -0.5484   -2.1951    0.9302 H   0  0  0  0  0  0  0  0  0  0  0  0
    0.9832   -1.5205    0.1423 H   0  0  0  0  0  0  0  0  0  0  0  0
    0.3419   -2.7571    0.0000 H   0  0  0  0  0  0  0  0  0  0  0  0
   -1.6106   -0.3704   -1.9001 H   0  0  0  0  0  0  0  0  0  0  0  0
   -2.6917    2.6779    0.2448 H   0  0  0  0  0  0  0  0  0  0  0  0
   -2.6500    2.2989   -1.4959 H   0  0  0  0  0  0  0  0  0  0  0  0
   -3.5796   -0.0216    0.1258 H   0  0  0  0  0  0  0  0  0  0  0  0
   -4.2983    0.7046   -1.3130 H   0  0  0  0  0  0  0  0  0  0  0  0
   -4.7826    2.0765    1.2444 H   0  0  0  0  0  0  0  0  0  0  0  0
   -5.4107   -0.8814   -0.4040 H   0  0  0  0  0  0  0  0  0  0  0  0
   -7.1566   -2.2118   -0.5199 H   0  0  0  0  0  0  0  0  0  0  0  0
   -7.3028   -1.7484    1.1929 H   0  0  0  0  0  0  0  0  0  0  0  0
   -9.7300   -2.4413    0.7791 H   0  0  0  0  0  0  0  0  0  0  0  0
  -11.9768   -1.4922    0.4106 H   0  0  0  0  0  0  0  0  0  0  0  0
  -12.2346    0.7129   -0.6986 H   0  0  0  0  0  0  0  0  0  0  0  0
  -10.2305    1.9411   -1.4949 H   0  0  0  0  0  0  0  0  0  0  0  0
   -7.9918    0.9986   -1.1674 H   0  0  0  0  0  0  0  0  0  0  0  0
  1  2  1  0  0  0  0
  1 20  1  0  0  0  0
  1 21  1  0  0  0  0
  1 22  1  0  0  0  0
  2 19  1  0  0  0  0
  2  3  2  0  0  0  0
  3  4  1  0  0  0  0
  3 23  1  0  0  0  0
  4  5  1  0  0  0  0
  4 18  1  0  0  0  0
  5  6  1  0  0  0  0
  5 24  1  0  0  0  0
  5 25  1  0  0  0  0
  6  7  1  0  0  0  0
  6 26  1  0  0  0  0
  6 27  1  0  0  0  0
  7  8  1  0  0  0  0
  7 28  1  0  0  0  0
  8  9  2  0  0  0  0
  8 10  1  0  0  0  0
 10 11  1  0  0  0  0
 10 29  1  0  0  0  0
 11 12  1  0  0  0  0
 11 30  1  0  0  0  0
 11 31  1  0  0  0  0
 12 17  2  0  0  0  0
 12 13  1  0  0  0  0
 13 14  2  0  0  0  0
 13 32  1  0  0  0  0
 14 15  1  0  0  0  0
 14 33  1  0  0  0  0
 15 16  2  0  0  0  0
 15 34  1  0  0  0  0
 16 17  1  0  0  0  0
 16 35  1  0  0  0  0
 17 36  1  0  0  0  0
 18 19  2  0  0  0  0
M  END
$$$$
