
 OpenBabel03202621282D

 19 19  0  0  1  0  0  0  0  0999 V2000
    0.2788   -1.7601    0.0000 C   0  0  0  0  0  0  0  0  0  0  0  0
   -0.3090   -0.9511    0.0000 C   0  0  0  0  0  0  0  0  0  0  0  0
   -1.3090   -0.9511    0.0000 C   0  0  0  0  0  0  0  0  0  0  0  0
   -1.6180   -0.0000    0.0000 N   0  0  0  0  0  0  0  0  0  0  0  0
   -2.5691    0.3090    0.0000 C   0  0  0  0  0  0  0  0  0  0  0  0
   -3.3122   -0.3601    0.0000 C   0  0  2  0  0  0  0  0  0  0  0  0
   -4.2633   -0.0511    0.0000 O   0  0  0  0  0  0  0  0  0  0  0  0
   -3.1043   -1.3383    0.0000 C   0  0  1  0  0  0  0  0  0  0  0  0
   -3.8475   -2.0074    0.0000 C   0  0  0  0  0  0  0  0  0  0  0  0
   -2.1533   -1.6473    0.0000 N   0  0  0  0  0  0  0  0  0  0  0  0
   -1.9454   -2.6254    0.0000 C   0  0  0  0  0  0  0  0  0  0  0  0
   -2.6885   -3.2946    0.0000 O   0  0  0  0  0  0  0  0  0  0  0  0
   -0.9943   -2.9344    0.0000 O   0  0  0  0  0  0  0  0  0  0  0  0
   -0.7864   -3.9126    0.0000 C   0  0  0  0  0  0  0  0  0  0  0  0
   -0.1173   -4.6557    0.0000 C   0  0  0  0  0  0  0  0  0  0  0  0
    0.1918   -3.7047    0.0000 C   0  0  0  0  0  0  0  0  0  0  0  0
   -1.5295   -4.5817    0.0000 C   0  0  0  0  0  0  0  0  0  0  0  0
   -0.8090    0.5878    0.0000 N   0  0  0  0  0  0  0  0  0  0  0  0
   -0.0000   -0.0000    0.0000 N   0  0  0  0  0  0  0  0  0  0  0  0
  1  2  1  0  0  0  0
  2 19  1  0  0  0  0
  2  3  2  0  0  0  0
  3  4  1  0  0  0  0
  4  5  1  0  0  0  0
  4 18  1  0  0  0  0
  5  6  1  0  0  0  0
  6  7  1  1  0  0  0
  6  8  1  0  0  0  0
  8  9  1  6  0  0  0
  8 10  1  0  0  0  0
 10 11  1  0  0  0  0
 11 12  2  0  0  0  0
 11 13  1  0  0  0  0
 13 14  1  0  0  0  0
 14 15  1  0  0  0  0
 14 16  1  0  0  0  0
 14 17  1  0  0  0  0
 18 19  2  0  0  0  0
M  END
$$$$
