
 OpenBabel03202621402D

 69 70  0  0  1  0  0  0  0  0999 V2000
    5.1962    7.0000    0.0000 C   0  0  0  0  0  0  0  0  0  0  0  0
    5.1962    6.0000    0.0000 C   0  0  0  0  0  0  0  0  0  0  0  0
    6.3589    5.4308    0.6905 O   0  0  0  0  0  0  0  0  0  0  0  0
    6.8326    4.2265    0.2311 C   0  0  0  0  0  0  0  0  0  0  0  0
    7.7984    4.1860   -0.5211 O   0  0  0  0  0  0  0  0  0  0  0  0
    6.1908    2.9900    0.9279 C   0  0  1  0  0  0  0  0  0  0  0  0
    6.4647    1.6638    0.1718 C   0  0  0  0  0  0  0  0  0  0  0  0
    7.7713    0.9193    0.2174 C   0  0  0  0  0  0  0  0  0  0  0  0
    9.0077    1.4895    0.5444 C   0  0  0  0  0  0  0  0  0  0  0  0
   10.1728    0.7149    0.4928 C   0  0  0  0  0  0  0  0  0  0  0  0
   10.1085   -0.6332    0.1276 C   0  0  0  0  0  0  0  0  0  0  0  0
    8.8952   -1.2127   -0.1849 C   0  0  0  0  0  0  0  0  0  0  0  0
    7.7362   -0.4416   -0.1440 C   0  0  0  0  0  0  0  0  0  0  0  0
    4.7285    3.2504    1.0125 N   0  0  0  0  0  0  0  0  0  0  0  0
    3.8603    2.2209    1.1858 C   0  0  0  0  0  0  0  0  0  0  0  0
    3.3488    1.8741    2.2319 O   0  0  0  0  0  0  0  0  0  0  0  0
    3.6136    1.7405   -0.0551 O   0  0  0  0  0  0  0  0  0  0  0  0
    2.5907    0.7511   -0.2068 C   0  0  0  0  0  0  0  0  0  0  0  0
    1.3709    1.5229   -0.6653 C   0  0  0  0  0  0  0  0  0  0  0  0
    0.0686    0.9446   -0.1060 C   0  0  2  0  0  0  0  0  0  0  0  0
   -0.3758   -0.2631   -0.9111 C   0  0  0  0  0  0  0  0  0  0  0  0
    0.0439   -0.4514   -2.0539 O   0  0  0  0  0  0  0  0  0  0  0  0
   -1.4016   -1.1689   -0.2949 C   0  0  0  0  0  0  0  0  0  0  0  0
   -2.6443   -0.5916    0.0401 C   0  0  0  0  0  0  0  0  0  0  0  0
   -3.7007   -1.3756    0.4813 C   0  0  0  0  0  0  0  0  0  0  0  0
   -3.5277   -2.7455    0.5582 C   0  0  0  0  0  0  0  0  0  0  0  0
   -2.2755   -3.3069    0.2700 C   0  0  0  0  0  0  0  0  0  0  0  0
   -1.1436   -2.5547   -0.1210 C   0  0  0  0  0  0  0  0  0  0  0  0
   -0.0057   -3.1145   -0.2767 O   0  5  0  0  0  0  0  0  0  0  0  0
   -0.9051    2.1061   -0.1395 C   0  0  0  0  0  0  0  0  0  0  0  0
   -1.6095    2.3497   -1.1227 O   0  0  0  0  0  0  0  0  0  0  0  0
   -0.8672    3.0531    1.0585 C   0  0  1  0  0  0  0  0  0  0  0  0
   -1.2210    2.3590    2.2435 O   0  0  0  0  0  0  0  0  0  0  0  0
   -1.7059    4.3191    0.8282 C   0  0  0  0  0  0  0  0  0  0  0  0
   -2.6602    4.6291    1.5484 O   0  0  0  0  0  0  0  0  0  0  0  0
   -1.2884    5.2556   -0.2862 C   0  0  0  0  0  0  0  0  0  0  0  0
    0.0000    6.0000    0.0000 C   0  0  0  0  0  0  0  0  0  0  0  0
    0.0000    7.0000    0.0000 C   0  0  0  0  0  0  0  0  0  0  0  0
    1.0014    5.2930    0.2082 O   0  0  0  0  0  0  0  0  0  0  0  0
    6.0276    7.1836   -0.7248 H   0  0  0  0  0  0  0  0  0  0  0  0
    4.2268    7.1833   -0.5275 H   0  0  0  0  0  0  0  0  0  0  0  0
    5.1962    8.0700    0.0000 H   0  0  0  0  0  0  0  0  0  0  0  0
    4.3669    5.6077    0.6060 H   0  0  0  0  0  0  0  0  0  0  0  0
    5.0968    5.4448   -0.9514 H   0  0  0  0  0  0  0  0  0  0  0  0
    6.5753    2.9347    1.9521 H   0  0  0  0  0  0  0  0  0  0  0  0
    5.7697    0.9234    0.5883 H   0  0  0  0  0  0  0  0  0  0  0  0
    6.1954    1.7967   -0.8845 H   0  0  0  0  0  0  0  0  0  0  0  0
    9.0877    2.5346    0.8134 H   0  0  0  0  0  0  0  0  0  0  0  0
   11.1266    1.1745    0.7328 H   0  0  0  0  0  0  0  0  0  0  0  0
   11.0257   -1.2216    0.0829 H   0  0  0  0  0  0  0  0  0  0  0  0
    8.8370   -2.2588   -0.4711 H   0  0  0  0  0  0  0  0  0  0  0  0
    6.7860   -0.9116   -0.4048 H   0  0  0  0  0  0  0  0  0  0  0  0
    4.4493    3.6034    0.1106 H   0  0  0  0  0  0  0  0  0  0  0  0
    2.9236    0.0534   -0.9817 H   0  0  0  0  0  0  0  0  0  0  0  0
    2.4417    0.1873    0.7192 H   0  0  0  0  0  0  0  0  0  0  0  0
    1.4805    2.5766   -0.3769 H   0  0  0  0  0  0  0  0  0  0  0  0
    1.3581    1.5589   -1.7639 H   0  0  0  0  0  0  0  0  0  0  0  0
    0.2087    0.6326    0.9352 H   0  0  0  0  0  0  0  0  0  0  0  0
   -2.8235    0.4687   -0.0735 H   0  0  0  0  0  0  0  0  0  0  0  0
   -4.6530   -0.9189    0.7256 H   0  0  0  0  0  0  0  0  0  0  0  0
   -4.3531   -3.3880    0.8440 H   0  0  0  0  0  0  0  0  0  0  0  0
   -2.1684   -4.3895    0.3515 H   0  0  0  0  0  0  0  0  0  0  0  0
    0.1657    3.3792    1.1949 H   0  0  0  0  0  0  0  0  0  0  0  0
   -0.4989    2.4790    2.8861 H   0  0  0  0  0  0  0  0  0  0  0  0
   -2.1082    5.9760   -0.4255 H   0  0  0  0  0  0  0  0  0  0  0  0
   -1.1939    4.7332   -1.2415 H   0  0  0  0  0  0  0  0  0  0  0  0
    0.8329    7.1544   -0.7271 H   0  0  0  0  0  0  0  0  0  0  0  0
    0.3059    7.1401    1.0638 H   0  0  0  0  0  0  0  0  0  0  0  0
    0.0000    8.0700    0.0000 H   0  0  0  0  0  0  0  0  0  0  0  0
  1  2  1  0  0  0  0
  1 40  1  0  0  0  0
  1 41  1  0  0  0  0
  1 42  1  0  0  0  0
  2  3  1  0  0  0  0
  2 43  1  0  0  0  0
  2 44  1  0  0  0  0
  3  4  1  0  0  0  0
  4  5  2  0  0  0  0
  4  6  1  0  0  0  0
  6  7  1  0  0  0  0
  6 14  1  0  0  0  0
  6 45  1  6  0  0  0
  7  8  1  0  0  0  0
  7 46  1  0  0  0  0
  7 47  1  0  0  0  0
  8 13  2  0  0  0  0
  8  9  1  0  0  0  0
  9 10  2  0  0  0  0
  9 48  1  0  0  0  0
 10 11  1  0  0  0  0
 10 49  1  0  0  0  0
 11 12  2  0  0  0  0
 11 50  1  0  0  0  0
 12 13  1  0  0  0  0
 12 51  1  0  0  0  0
 13 52  1  0  0  0  0
 14 15  1  0  0  0  0
 14 53  1  0  0  0  0
 15 16  2  0  0  0  0
 15 17  1  0  0  0  0
 17 18  1  0  0  0  0
 18 19  1  0  0  0  0
 18 54  1  0  0  0  0
 18 55  1  0  0  0  0
 19 56  1  0  0  0  0
 19 57  1  0  0  0  0
 20 19  1  0  0  0  0
 20 21  1  0  0  0  0
 20 30  1  0  0  0  0
 20 58  1  1  0  0  0
 21 22  2  0  0  0  0
 21 23  1  0  0  0  0
 23 28  2  0  0  0  0
 23 24  1  0  0  0  0
 24 25  2  0  0  0  0
 24 59  1  0  0  0  0
 25 26  1  0  0  0  0
 25 60  1  0  0  0  0
 26 27  2  0  0  0  0
 26 61  1  0  0  0  0
 27 28  1  0  0  0  0
 27 62  1  0  0  0  0
 28 29  1  0  0  0  0
 30 31  2  0  0  0  0
 30 32  1  0  0  0  0
 32 33  1  0  0  0  0
 32 34  1  0  0  0  0
 32 63  1  6  0  0  0
 33 64  1  0  0  0  0
 34 35  2  0  0  0  0
 34 36  1  0  0  0  0
 36 37  1  0  0  0  0
 36 65  1  0  0  0  0
 36 66  1  0  0  0  0
 37 38  1  0  0  0  0
 37 39  2  0  0  0  0
 38 67  1  0  0  0  0
 38 68  1  0  0  0  0
 38 69  1  0  0  0  0
M  CHG  1  29  -1
M  END
$$$$
