
 OpenBabel03202621292D

 24 23  0  0  0  0  0  0  0  0999 V2000
    2.5981   -1.5000    0.0000 C   0  0  0  0  0  0  0  0  0  0  0  0
    2.5981   -0.5000    0.0000 N   0  0  0  0  0  0  0  0  0  0  0  0
    1.5496    0.5098    0.0000 C   0  0  0  0  0  0  0  0  0  0  0  0
    1.5153    1.7926    0.0000 N   0  0  0  0  0  0  0  0  0  0  0  0
    2.6660    2.5898   -0.0000 C   0  0  0  0  0  0  0  0  0  0  0  0
    3.8840    1.7720    0.0000 C   0  0  0  0  0  0  0  0  0  0  0  0
    5.0304    2.2112   -0.0000 O   0  0  0  0  0  0  0  0  0  0  0  0
    3.4641    0.0000    0.0000 S   0  0  0  0  0  0  0  0  0  0  0  0
    4.3301   -0.5000    0.0000 C   0  0  0  0  0  0  0  0  0  0  0  0
    0.8660   -0.5000    0.0000 N   0  0  0  0  0  0  0  0  0  0  0  0
    0.0000    0.0000    0.0000 C   0  0  0  0  0  0  0  0  0  0  0  0
    1.6970   -2.1773    0.0000 H   0  0  0  0  0  0  0  0  0  0  0  0
    3.5459   -2.5386    0.0000 H   0  0  0  0  0  0  0  0  0  0  0  0
    2.5981   -2.5700    0.0000 H   0  0  0  0  0  0  0  0  0  0  0  0
    3.1448   -1.2807   -0.0003 H   0  0  0  0  0  0  0  0  0  0  0  0
    2.0731    3.4988   -0.0000 H   0  0  0  0  0  0  0  0  0  0  0  0
    3.2662    3.5206    0.0000 H   0  0  0  0  0  0  0  0  0  0  0  0
    4.6259   -1.5788    0.0014 H   0  0  0  0  0  0  0  0  0  0  0  0
    5.1925    0.1815    0.0000 H   0  0  0  0  0  0  0  0  0  0  0  0
    5.2567   -1.0350    0.0000 H   0  0  0  0  0  0  0  0  0  0  0  0
    0.5777   -1.4439   -0.0000 H   0  0  0  0  0  0  0  0  0  0  0  0
   -0.1730    1.1209   -0.0000 H   0  0  0  0  0  0  0  0  0  0  0  0
   -0.8357   -0.7474   -0.0000 H   0  0  0  0  0  0  0  0  0  0  0  0
   -0.9266    0.5350    0.0000 H   0  0  0  0  0  0  0  0  0  0  0  0
  1  2  1  0  0  0  0
  1 12  1  0  0  0  0
  1 13  1  0  0  0  0
  1 14  1  0  0  0  0
  2  3  1  0  0  0  0
  2 15  1  0  0  0  0
  3  4  2  0  0  0  0
  3 10  1  0  0  0  0
  4  5  1  0  0  0  0
  5  6  1  0  0  0  0
  5 16  1  0  0  0  0
  5 17  1  0  0  0  0
  6  7  2  0  0  0  0
  6  8  1  0  0  0  0
  8  9  1  0  0  0  0
  9 18  1  0  0  0  0
  9 19  1  0  0  0  0
  9 20  1  0  0  0  0
 10 11  1  0  0  0  0
 10 21  1  0  0  0  0
 11 22  1  0  0  0  0
 11 23  1  0  0  0  0
 11 24  1  0  0  0  0
M  END
$$$$
