
 OpenBabel03202621362D

 26 27  0  0  0  0  0  0  0  0999 V2000
    2.5981    2.5000    0.0000 C   0  0  0  0  0  0  0  0  0  0  0  0
    2.5981    1.5000    0.0000 S   0  0  0  0  0  0  0  0  0  0  0  0
    0.9491    0.9454    0.3421 C   0  0  0  0  0  0  0  0  0  0  0  0
   -0.2376    1.9544    0.9754 S   0  0  0  0  0  0  0  0  0  0  0  0
    0.8811   -0.4034    0.0621 N   0  0  0  0  0  0  0  0  0  0  0  0
   -0.2187   -1.2923    0.0214 C   0  0  0  0  0  0  0  0  0  0  0  0
    0.0544   -2.6647    0.0355 C   0  0  0  0  0  0  0  0  0  0  0  0
   -0.9877   -3.6096    0.0228 C   0  0  0  0  0  0  0  0  0  0  0  0
   -2.3261   -3.2010   -0.0232 C   0  0  0  0  0  0  0  0  0  0  0  0
   -3.4232   -4.1588   -0.0121 C   0  0  0  0  0  0  0  0  0  0  0  0
   -3.5545   -5.5308    0.0145 C   0  0  0  0  0  0  0  0  0  0  0  0
   -4.8817   -5.8872    0.0221 N   0  0  0  0  0  0  0  0  0  0  0  0
   -5.5056   -4.7314    0.0013 C   0  0  0  0  0  0  0  0  0  0  0  0
   -4.6964   -3.6412   -0.0223 O   0  0  0  0  0  0  0  0  0  0  0  0
   -2.5865   -1.8299   -0.0827 C   0  0  0  0  0  0  0  0  0  0  0  0
   -1.5492   -0.8910   -0.0728 C   0  0  0  0  0  0  0  0  0  0  0  0
    3.6744    2.6710    0.1931 H   0  0  0  0  0  0  0  0  0  0  0  0
    2.4204    2.6795   -1.0802 H   0  0  0  0  0  0  0  0  0  0  0  0
    2.5981    3.5700    0.0000 H   0  0  0  0  0  0  0  0  0  0  0  0
    1.7913   -0.8194   -0.0982 H   0  0  0  0  0  0  0  0  0  0  0  0
    1.0788   -3.0261    0.0855 H   0  0  0  0  0  0  0  0  0  0  0  0
   -0.7300   -4.6656    0.0567 H   0  0  0  0  0  0  0  0  0  0  0  0
   -2.7739   -6.2780    0.0304 H   0  0  0  0  0  0  0  0  0  0  0  0
   -6.5689   -4.5435    0.0019 H   0  0  0  0  0  0  0  0  0  0  0  0
   -3.6089   -1.4605   -0.1429 H   0  0  0  0  0  0  0  0  0  0  0  0
   -1.8399    0.1456   -0.1737 H   0  0  0  0  0  0  0  0  0  0  0  0
  1  2  1  0  0  0  0
  1 17  1  0  0  0  0
  1 18  1  0  0  0  0
  1 19  1  0  0  0  0
  2  3  1  0  0  0  0
  3  4  2  0  0  0  0
  3  5  1  0  0  0  0
  5  6  1  0  0  0  0
  5 20  1  0  0  0  0
  6 16  2  0  0  0  0
  6  7  1  0  0  0  0
  7  8  2  0  0  0  0
  7 21  1  0  0  0  0
  8  9  1  0  0  0  0
  8 22  1  0  0  0  0
  9 10  1  0  0  0  0
  9 15  2  0  0  0  0
 10 14  1  0  0  0  0
 10 11  2  0  0  0  0
 11 12  1  0  0  0  0
 11 23  1  0  0  0  0
 12 13  2  0  0  0  0
 13 14  1  0  0  0  0
 13 24  1  0  0  0  0
 15 16  1  0  0  0  0
 15 25  1  0  0  0  0
 16 26  1  0  0  0  0
M  END
$$$$
