
 OpenBabel03202621312D

 27 27  0  0  1  0  0  0  0  0999 V2000
    0.8660   -2.5000    0.0000 C   0  0  0  0  0  0  0  0  0  0  0  0
    0.8660   -1.5000    0.0000 O   0  0  0  0  0  0  0  0  0  0  0  0
   -0.6721   -1.4008    0.0406 C   0  0  0  0  0  0  0  0  0  0  0  0
   -1.5977   -2.4148   -0.3155 C   0  0  0  0  0  0  0  0  0  0  0  0
   -2.9823   -2.1780   -0.2451 C   0  0  0  0  0  0  0  0  0  0  0  0
   -3.4685   -0.9273    0.1395 C   0  0  0  0  0  0  0  0  0  0  0  0
   -4.7577   -0.6876    0.1591 F   0  0  0  0  0  0  0  0  0  0  0  0
   -2.5541    0.0919    0.5629 C   0  0  0  0  0  0  0  0  0  0  0  0
   -1.1772   -0.1892    0.5810 C   0  0  0  0  0  0  0  0  0  0  0  0
   -0.1105    0.6234    1.1959 C   0  0  1  0  0  0  0  0  0  0  0  0
    0.3132    0.1830    2.4594 O   0  0  0  0  0  0  0  0  0  0  0  0
    0.1664    2.0364    0.9046 C   0  0  0  0  0  0  0  0  0  0  0  0
    1.7321    2.0000    0.0000 S   0  0  0  0  0  0  0  0  0  0  0  0
    2.5981    1.5000    0.0000 C   0  0  0  0  0  0  0  0  0  0  0  0
    1.1912   -2.6828   -1.0507 H   0  0  0  0  0  0  0  0  0  0  0  0
    1.7613   -2.6736    0.6325 H   0  0  0  0  0  0  0  0  0  0  0  0
    0.8660   -3.5700    0.0000 H   0  0  0  0  0  0  0  0  0  0  0  0
   -1.2927   -3.4171   -0.6408 H   0  0  0  0  0  0  0  0  0  0  0  0
   -3.7018   -2.9503   -0.4983 H   0  0  0  0  0  0  0  0  0  0  0  0
   -2.9438    1.0403    0.8759 H   0  0  0  0  0  0  0  0  0  0  0  0
    0.6413    0.2349    0.5637 H   0  0  0  0  0  0  0  0  0  0  0  0
    1.2288   -0.1144    2.2965 H   0  0  0  0  0  0  0  0  0  0  0  0
    0.2164    2.6822    1.7804 H   0  0  0  0  0  0  0  0  0  0  0  0
   -0.5569    2.4692    0.1982 H   0  0  0  0  0  0  0  0  0  0  0  0
    2.5102    1.0013   -0.9841 H   0  0  0  0  0  0  0  0  0  0  0  0
    3.2902    2.3558   -0.1111 H   0  0  0  0  0  0  0  0  0  0  0  0
    3.5247    0.9650    0.0000 H   0  0  0  0  0  0  0  0  0  0  0  0
  1  2  1  0  0  0  0
  1 15  1  0  0  0  0
  1 16  1  0  0  0  0
  1 17  1  0  0  0  0
  2  3  1  0  0  0  0
  3  9  2  0  0  0  0
  3  4  1  0  0  0  0
  4  5  2  0  0  0  0
  4 18  1  0  0  0  0
  5  6  1  0  0  0  0
  5 19  1  0  0  0  0
  6  7  1  0  0  0  0
  6  8  2  0  0  0  0
  8  9  1  0  0  0  0
  8 20  1  0  0  0  0
  9 10  1  0  0  0  0
 10 11  1  0  0  0  0
 10 12  1  0  0  0  0
 10 21  1  1  0  0  0
 11 22  1  0  0  0  0
 12 13  1  0  0  0  0
 12 23  1  0  0  0  0
 12 24  1  0  0  0  0
 13 14  1  0  0  0  0
 14 25  1  0  0  0  0
 14 26  1  0  0  0  0
 14 27  1  0  0  0  0
M  END
$$$$
