
 OpenBabel03202621352D

 41 42  0  0  0  0  0  0  0  0999 V2000
   -1.7321    1.0000    0.0000 C   0  0  0  0  0  0  0  0  0  0  0  0
   -0.8660    1.5000    0.0000 O   0  0  0  0  0  0  0  0  0  0  0  0
    0.1125    0.5102   -0.0887 C   0  0  0  0  0  0  0  0  0  0  0  0
    1.1073    0.6568   -1.0536 C   0  0  0  0  0  0  0  0  0  0  0  0
    1.9805   -0.4057   -1.3011 C   0  0  0  0  0  0  0  0  0  0  0  0
    1.8717   -1.5997   -0.5659 C   0  0  0  0  0  0  0  0  0  0  0  0
    2.8598   -2.7216   -0.7096 C   0  0  0  0  0  0  0  0  0  0  0  0
    3.4526   -2.9814    0.5678 O   0  0  0  0  0  0  0  0  0  0  0  0
    4.5716   -2.1425    0.8488 C   0  0  0  0  0  0  0  0  0  0  0  0
    4.1945   -0.8132    1.5136 C   0  0  0  0  0  0  0  0  0  0  0  0
    5.3490    0.1743    1.6992 C   0  0  0  0  0  0  0  0  0  0  0  0
    6.0796    0.5090    0.3942 C   0  0  0  0  0  0  0  0  0  0  0  0
    7.2748   -0.2758    0.1628 N   0  0  0  0  0  0  0  0  0  0  0  0
    8.4682    0.1771   -0.2858 C   0  0  0  0  0  0  0  0  0  0  0  0
    9.3769   -0.8364    0.0000 C   0  0  0  0  0  0  0  0  0  0  0  0
   10.3714   -0.7319    0.0000 C   0  0  0  0  0  0  0  0  0  0  0  0
    8.6385   -1.9146    0.4377 N   0  0  0  0  0  0  0  0  0  0  0  0
    7.3697   -1.5558    0.5325 N   0  0  0  0  0  0  0  0  0  0  0  0
    0.8874   -1.7249    0.4200 C   0  0  0  0  0  0  0  0  0  0  0  0
    0.0313   -0.6714    0.6787 C   0  0  0  0  0  0  0  0  0  0  0  0
   -2.2359    1.5152    0.8455 H   0  0  0  0  0  0  0  0  0  0  0  0
   -2.1773    1.4049   -0.9353 H   0  0  0  0  0  0  0  0  0  0  0  0
   -2.6588    0.4650    0.0000 H   0  0  0  0  0  0  0  0  0  0  0  0
    1.1733    1.5718   -1.6341 H   0  0  0  0  0  0  0  0  0  0  0  0
    2.7589   -0.2914   -2.0511 H   0  0  0  0  0  0  0  0  0  0  0  0
    2.3233   -3.6269   -1.0154 H   0  0  0  0  0  0  0  0  0  0  0  0
    3.6167   -2.5228   -1.4771 H   0  0  0  0  0  0  0  0  0  0  0  0
    5.2156   -2.7033    1.5324 H   0  0  0  0  0  0  0  0  0  0  0  0
    5.1136   -1.9886   -0.0856 H   0  0  0  0  0  0  0  0  0  0  0  0
    3.7286   -1.0184    2.4866 H   0  0  0  0  0  0  0  0  0  0  0  0
    3.4286   -0.2920    0.9421 H   0  0  0  0  0  0  0  0  0  0  0  0
    6.0421   -0.1895    2.4659 H   0  0  0  0  0  0  0  0  0  0  0  0
    4.9161    1.1030    2.0932 H   0  0  0  0  0  0  0  0  0  0  0  0
    5.4385    0.4006   -0.4874 H   0  0  0  0  0  0  0  0  0  0  0  0
    6.4044    1.5580    0.4359 H   0  0  0  0  0  0  0  0  0  0  0  0
    8.6119    1.1946   -0.6251 H   0  0  0  0  0  0  0  0  0  0  0  0
   10.6588   -1.6691   -0.5331 H   0  0  0  0  0  0  0  0  0  0  0  0
   10.5689   -0.8351    1.0942 H   0  0  0  0  0  0  0  0  0  0  0  0
   11.4355   -0.6201    0.0000 H   0  0  0  0  0  0  0  0  0  0  0  0
    0.8148   -2.6381    1.0089 H   0  0  0  0  0  0  0  0  0  0  0  0
   -0.7239   -0.7912    1.4517 H   0  0  0  0  0  0  0  0  0  0  0  0
  1  2  1  0  0  0  0
  1 21  1  0  0  0  0
  1 22  1  0  0  0  0
  1 23  1  0  0  0  0
  2  3  1  0  0  0  0
  3 20  2  0  0  0  0
  3  4  1  0  0  0  0
  4  5  2  0  0  0  0
  4 24  1  0  0  0  0
  5  6  1  0  0  0  0
  5 25  1  0  0  0  0
  6  7  1  0  0  0  0
  6 19  2  0  0  0  0
  7  8  1  0  0  0  0
  7 26  1  0  0  0  0
  7 27  1  0  0  0  0
  8  9  1  0  0  0  0
  9 10  1  0  0  0  0
  9 28  1  0  0  0  0
  9 29  1  0  0  0  0
 10 11  1  0  0  0  0
 10 30  1  0  0  0  0
 10 31  1  0  0  0  0
 11 12  1  0  0  0  0
 11 32  1  0  0  0  0
 11 33  1  0  0  0  0
 12 13  1  0  0  0  0
 12 34  1  0  0  0  0
 12 35  1  0  0  0  0
 13 18  1  0  0  0  0
 13 14  1  0  0  0  0
 14 15  2  0  0  0  0
 14 36  1  0  0  0  0
 15 16  1  0  0  0  0
 15 17  1  0  0  0  0
 16 37  1  0  0  0  0
 16 38  1  0  0  0  0
 16 39  1  0  0  0  0
 17 18  2  0  0  0  0
 19 20  1  0  0  0  0
 19 40  1  0  0  0  0
 20 41  1  0  0  0  0
M  END
$$$$
