
 OpenBabel03202621312D

 32 33  0  0  0  0  0  0  0  0999 V2000
   -3.3385   -3.5155    0.1309 C   0  0  0  0  0  0  0  0  0  0  0  0
   -1.8423   -2.6313   -0.3510 S   0  0  0  0  0  0  0  0  0  0  0  0
   -2.3320   -0.9195   -0.2047 C   0  0  0  0  0  0  0  0  0  0  0  0
   -3.6359   -0.4379   -0.3400 C   0  0  0  0  0  0  0  0  0  0  0  0
   -3.8943    0.9379   -0.2995 C   0  0  0  0  0  0  0  0  0  0  0  0
   -2.8496    1.8505   -0.1442 C   0  0  0  0  0  0  0  0  0  0  0  0
   -1.5553    1.3743    0.0314 C   0  0  0  0  0  0  0  0  0  0  0  0
   -0.4905    2.2788    0.1399 N   0  0  0  0  0  0  0  0  0  0  0  0
    0.6960    1.9171    0.7571 C   0  0  0  0  0  0  0  0  0  0  0  0
    0.7460    1.2796    1.8014 O   0  0  0  0  0  0  0  0  0  0  0  0
    1.9037    2.4171    0.0372 C   0  0  0  0  0  0  0  0  0  0  0  0
    2.9985    1.4712    0.0254 N   0  0  0  0  0  0  0  0  0  0  0  0
    4.2937    1.8350   -0.0469 C   0  0  0  0  0  0  0  0  0  0  0  0
    5.0468    0.6636    0.0000 C   0  0  0  0  0  0  0  0  0  0  0  0
    6.0413    0.7681    0.0000 C   0  0  0  0  0  0  0  0  0  0  0  0
    4.1379   -0.3675   -0.0101 N   0  0  0  0  0  0  0  0  0  0  0  0
    2.8970    0.1359   -0.0494 N   0  0  0  0  0  0  0  0  0  0  0  0
   -1.3022   -0.0020   -0.0014 C   0  0  0  0  0  0  0  0  0  0  0  0
   -3.8090   -3.0564    1.0033 H   0  0  0  0  0  0  0  0  0  0  0  0
   -3.0649   -4.5422    0.3880 H   0  0  0  0  0  0  0  0  0  0  0  0
   -4.0417   -3.5436   -0.7047 H   0  0  0  0  0  0  0  0  0  0  0  0
   -4.4690   -1.1152   -0.4983 H   0  0  0  0  0  0  0  0  0  0  0  0
   -4.9147    1.3010   -0.4006 H   0  0  0  0  0  0  0  0  0  0  0  0
   -3.0643    2.9133   -0.1278 H   0  0  0  0  0  0  0  0  0  0  0  0
   -0.6241    3.2294   -0.1773 H   0  0  0  0  0  0  0  0  0  0  0  0
    1.6811    2.6607   -1.0095 H   0  0  0  0  0  0  0  0  0  0  0  0
    2.2438    3.3258    0.5414 H   0  0  0  0  0  0  0  0  0  0  0  0
    4.5989    2.8744   -0.0840 H   0  0  0  0  0  0  0  0  0  0  0  0
    6.3399   -0.2507   -0.3445 H   0  0  0  0  0  0  0  0  0  0  0  0
    6.2112    0.8088    1.1049 H   0  0  0  0  0  0  0  0  0  0  0  0
    7.1054    0.8799    0.0000 H   0  0  0  0  0  0  0  0  0  0  0  0
   -0.2806   -0.3729    0.0827 H   0  0  0  0  0  0  0  0  0  0  0  0
  1  2  1  0  0  0  0
  1 19  1  0  0  0  0
  1 20  1  0  0  0  0
  1 21  1  0  0  0  0
  2  3  1  0  0  0  0
  3 18  2  0  0  0  0
  3  4  1  0  0  0  0
  4  5  2  0  0  0  0
  4 22  1  0  0  0  0
  5  6  1  0  0  0  0
  5 23  1  0  0  0  0
  6  7  2  0  0  0  0
  6 24  1  0  0  0  0
  7  8  1  0  0  0  0
  7 18  1  0  0  0  0
  8  9  1  0  0  0  0
  8 25  1  0  0  0  0
  9 10  2  0  0  0  0
  9 11  1  0  0  0  0
 11 12  1  0  0  0  0
 11 26  1  0  0  0  0
 11 27  1  0  0  0  0
 12 17  1  0  0  0  0
 12 13  1  0  0  0  0
 13 14  2  0  0  0  0
 13 28  1  0  0  0  0
 14 15  1  0  0  0  0
 14 16  1  0  0  0  0
 15 29  1  0  0  0  0
 15 30  1  0  0  0  0
 15 31  1  0  0  0  0
 16 17  2  0  0  0  0
 18 32  1  0  0  0  0
M  END
$$$$
