
 OpenBabel03202621372D

 26 26  0  0  0  0  0  0  0  0999 V2000
    4.3301    2.5000    0.0000 C   0  0  0  0  0  0  0  0  0  0  0  0
    3.4641    3.0000    0.0000 S   0  0  0  0  0  0  0  0  0  0  0  0
    2.0497    2.8482    0.9160 C   0  0  0  0  0  0  0  0  0  0  0  0
    1.1945    3.7051    0.9805 O   0  0  0  0  0  0  0  0  0  0  0  0
    1.9574    1.5367    1.2685 N   0  0  0  0  0  0  0  0  0  0  0  0
    1.0449    0.8900    0.3768 C   0  0  0  0  0  0  0  0  0  0  0  0
    1.4374   -0.5413   -0.0066 C   0  0  0  0  0  0  0  0  0  0  0  0
    0.1941   -1.3690   -0.1269 C   0  0  0  0  0  0  0  0  0  0  0  0
    0.2768   -2.7554    0.0106 C   0  0  0  0  0  0  0  0  0  0  0  0
   -0.9047   -3.5006    0.0302 C   0  0  0  0  0  0  0  0  0  0  0  0
   -2.1451   -2.8685   -0.0516 C   0  0  0  0  0  0  0  0  0  0  0  0
   -3.7375   -3.8690    0.0457 Br  0  0  0  0  0  0  0  0  0  0  0  0
   -2.2249   -1.4958   -0.2171 C   0  0  0  0  0  0  0  0  0  0  0  0
   -1.0598   -0.7667   -0.3161 C   0  0  0  0  0  0  0  0  0  0  0  0
    4.1020    1.7483   -0.7809 H   0  0  0  0  0  0  0  0  0  0  0  0
    4.9767    3.2764   -0.4507 H   0  0  0  0  0  0  0  0  0  0  0  0
    5.2567    1.9650    0.0000 H   0  0  0  0  0  0  0  0  0  0  0  0
    2.8527    1.0901    1.3342 H   0  0  0  0  0  0  0  0  0  0  0  0
    0.9508    1.4477   -0.5719 H   0  0  0  0  0  0  0  0  0  0  0  0
    0.0965    0.9785    0.9049 H   0  0  0  0  0  0  0  0  0  0  0  0
    2.1106   -0.9582    0.7610 H   0  0  0  0  0  0  0  0  0  0  0  0
    1.9926   -0.5444   -0.9500 H   0  0  0  0  0  0  0  0  0  0  0  0
    1.2295   -3.2527    0.1272 H   0  0  0  0  0  0  0  0  0  0  0  0
   -0.8470   -4.5911    0.1422 H   0  0  0  0  0  0  0  0  0  0  0  0
   -3.1824   -0.9728   -0.2453 H   0  0  0  0  0  0  0  0  0  0  0  0
   -1.1778    0.3009   -0.4909 H   0  0  0  0  0  0  0  0  0  0  0  0
  1  2  1  0  0  0  0
  1 15  1  0  0  0  0
  1 16  1  0  0  0  0
  1 17  1  0  0  0  0
  2  3  1  0  0  0  0
  3  4  2  0  0  0  0
  3  5  1  0  0  0  0
  5  6  1  0  0  0  0
  5 18  1  0  0  0  0
  6  7  1  0  0  0  0
  6 19  1  0  0  0  0
  6 20  1  0  0  0  0
  7  8  1  0  0  0  0
  7 21  1  0  0  0  0
  7 22  1  0  0  0  0
  8 14  2  0  0  0  0
  8  9  1  0  0  0  0
  9 10  2  0  0  0  0
  9 23  1  0  0  0  0
 10 11  1  0  0  0  0
 10 24  1  0  0  0  0
 11 12  1  0  0  0  0
 11 13  2  0  0  0  0
 13 14  1  0  0  0  0
 13 25  1  0  0  0  0
 14 26  1  0  0  0  0
M  END
$$$$
