
 OpenBabel03202621312D

 11 10  0  0  0  0  0  0  0  0999 V2000
   -3.0000    0.0000    0.0000 C   0  0  0  0  0  0  0  0  0  0  0  0
   -2.5000   -0.8660    0.0000 S   0  0  0  0  0  0  0  0  0  0  0  0
   -0.7000   -0.8247   -0.0003 C   0  0  0  0  0  0  0  0  0  0  0  0
   -0.2054   -1.9555   -0.0001 O   0  0  0  0  0  0  0  0  0  0  0  0
    0.2458    0.3816    0.0015 C   0  0  0  0  0  0  0  0  0  0  0  0
    0.8861    1.6578   -0.0003 F   0  0  0  0  0  0  0  0  0  0  0  0
   -0.6919    1.3432   -0.0004 F   0  0  0  0  0  0  0  0  0  0  0  0
    1.4930   -0.0613   -0.0004 F   0  0  0  0  0  0  0  0  0  0  0  0
   -2.3757    0.8605    0.0000 H   0  0  0  0  0  0  0  0  0  0  0  0
   -4.0618   -0.2665    0.0000 H   0  0  0  0  0  0  0  0  0  0  0  0
   -3.5350    0.9266    0.0000 H   0  0  0  0  0  0  0  0  0  0  0  0
  1  2  1  0  0  0  0
  1  9  1  0  0  0  0
  1 10  1  0  0  0  0
  1 11  1  0  0  0  0
  2  3  1  0  0  0  0
  3  4  2  0  0  0  0
  3  5  1  0  0  0  0
  5  6  1  0  0  0  0
  5  7  1  0  0  0  0
  5  8  1  0  0  0  0
M  END
$$$$
