
 OpenBabel03202621382D

 32 33  0  0  0  0  0  0  0  0999 V2000
   -5.9425   -2.5689    1.1448 O   0  0  0  0  0  0  0  0  0  0  0  0
   -6.5565   -1.7653    0.4521 C   0  0  0  0  0  0  0  0  0  0  0  0
   -7.9076   -2.0727   -0.1445 C   0  0  0  0  0  0  0  0  0  0  0  0
   -8.7852   -0.8619    0.0995 C   0  0  0  0  0  0  0  0  0  0  0  0
   -8.2344    0.3460   -0.4415 O   0  0  0  0  0  0  0  0  0  0  0  0
   -6.8840    0.5048   -0.2691 C   0  0  0  0  0  0  0  0  0  0  0  0
   -6.0065   -0.4215    0.1356 C   0  0  0  0  0  0  0  0  0  0  0  0
   -4.6322   -0.1007    0.3106 O   0  0  0  0  0  0  0  0  0  0  0  0
   -3.5592   -0.7856   -0.2108 C   0  0  0  0  0  0  0  0  0  0  0  0
   -3.7172   -1.9842   -1.3594 S   0  0  0  0  0  0  0  0  0  0  0  0
   -2.3863   -0.2036    0.2451 N   0  0  0  0  0  0  0  0  0  0  0  0
   -1.0791   -0.6233    0.0263 C   0  0  0  0  0  0  0  0  0  0  0  0
   -0.7559   -1.7989   -0.1011 O   0  0  0  0  0  0  0  0  0  0  0  0
    0.0047    0.4150    0.0734 C   0  0  0  0  0  0  0  0  0  0  0  0
   -0.2410    1.7988    0.0456 C   0  0  0  0  0  0  0  0  0  0  0  0
    0.8291    2.7064    0.0245 C   0  0  0  0  0  0  0  0  0  0  0  0
    2.1513    2.2386    0.0175 C   0  0  0  0  0  0  0  0  0  0  0  0
    3.2683    3.1896   -0.0328 N   0  3  0  0  0  0  0  0  0  0  0  0
    4.4255    2.7321   -0.0418 O   0  0  0  0  0  0  0  0  0  0  0  0
    2.9923    4.3961   -0.0620 O   0  5  0  0  0  0  0  0  0  0  0  0
    2.4080    0.8624    0.0414 C   0  0  0  0  0  0  0  0  0  0  0  0
    1.3351   -0.0373    0.0692 C   0  0  0  0  0  0  0  0  0  0  0  0
   -8.3346   -2.9598    0.3317 H   0  0  0  0  0  0  0  0  0  0  0  0
   -7.7781   -2.2680   -1.2145 H   0  0  0  0  0  0  0  0  0  0  0  0
   -8.9631   -0.7121    1.1720 H   0  0  0  0  0  0  0  0  0  0  0  0
   -9.7629   -1.0110   -0.3731 H   0  0  0  0  0  0  0  0  0  0  0  0
   -6.5925    1.5149   -0.5281 H   0  0  0  0  0  0  0  0  0  0  0  0
   -2.5331    0.6625    0.7376 H   0  0  0  0  0  0  0  0  0  0  0  0
   -1.2526    2.2016    0.0077 H   0  0  0  0  0  0  0  0  0  0  0  0
    0.6147    3.7741   -0.0048 H   0  0  0  0  0  0  0  0  0  0  0  0
    3.4238    0.4739    0.0260 H   0  0  0  0  0  0  0  0  0  0  0  0
    1.5499   -1.1059    0.0733 H   0  0  0  0  0  0  0  0  0  0  0  0
  1  2  2  0  0  0  0
  2  7  1  0  0  0  0
  2  3  1  0  0  0  0
  3  4  1  0  0  0  0
  3 23  1  0  0  0  0
  3 24  1  0  0  0  0
  4  5  1  0  0  0  0
  4 25  1  0  0  0  0
  4 26  1  0  0  0  0
  5  6  1  0  0  0  0
  6  7  2  0  0  0  0
  6 27  1  0  0  0  0
  7  8  1  0  0  0  0
  8  9  1  0  0  0  0
  9 10  2  0  0  0  0
  9 11  1  0  0  0  0
 11 12  1  0  0  0  0
 11 28  1  0  0  0  0
 12 13  2  0  0  0  0
 12 14  1  0  0  0  0
 14 22  2  0  0  0  0
 14 15  1  0  0  0  0
 15 16  2  0  0  0  0
 15 29  1  0  0  0  0
 16 17  1  0  0  0  0
 16 30  1  0  0  0  0
 17 18  1  0  0  0  0
 17 21  2  0  0  0  0
 18 19  2  0  0  0  0
 18 20  1  0  0  0  0
 21 22  1  0  0  0  0
 21 31  1  0  0  0  0
 22 32  1  0  0  0  0
M  CHG  2  18   1  20  -1
M  END
$$$$
