
 OpenBabel03202621372D

 12 11  0  0  0  0  0  0  0  0999 V2000
    3.4641   -2.0000    0.0000 C   0  0  0  0  0  0  0  0  0  0  0  0
    3.4641   -1.0000    0.0000 S   0  0  0  0  0  0  0  0  0  0  0  0
    1.9062   -0.1967   -0.0250 C   0  0  0  0  0  0  0  0  0  0  0  0
    1.8752    1.0208   -0.1542 O   0  0  0  0  0  0  0  0  0  0  0  0
    0.6732   -1.0643    0.0498 C   0  0  0  0  0  0  0  0  0  0  0  0
   -0.5233   -0.2789    0.3566 C   0  0  0  0  0  0  0  0  0  0  0  0
   -1.5067    0.2886    0.6095 N   0  0  0  0  0  0  0  0  0  0  0  0
    3.1132   -2.1902   -1.0353 H   0  0  0  0  0  0  0  0  0  0  0  0
    4.5577   -2.1702    0.0089 H   0  0  0  0  0  0  0  0  0  0  0  0
    3.4641   -3.0700    0.0000 H   0  0  0  0  0  0  0  0  0  0  0  0
    0.8051   -1.8252    0.8269 H   0  0  0  0  0  0  0  0  0  0  0  0
    0.5483   -1.5688   -0.9146 H   0  0  0  0  0  0  0  0  0  0  0  0
  1  2  1  0  0  0  0
  1  8  1  0  0  0  0
  1  9  1  0  0  0  0
  1 10  1  0  0  0  0
  2  3  1  0  0  0  0
  3  4  2  0  0  0  0
  3  5  1  0  0  0  0
  5  6  1  0  0  0  0
  5 11  1  0  0  0  0
  5 12  1  0  0  0  0
  6  7  3  0  0  0  0
M  END
$$$$
