
 OpenBabel03202621362D

 34 35  0  0  0  0  0  0  0  0999 V2000
    0.0933    1.7796    0.0000 C   0  0  0  0  0  0  0  0  0  0  0  0
    0.5000    0.8660    0.0000 C   0  0  0  0  0  0  0  0  0  0  0  0
    1.3723    0.2666   -0.8793 C   0  0  0  0  0  0  0  0  0  0  0  0
    1.6139   -0.9570   -0.3370 N   0  0  0  0  0  0  0  0  0  0  0  0
    2.8615   -1.6600   -0.4281 C   0  0  0  0  0  0  0  0  0  0  0  0
    3.9621   -0.7811    0.1609 C   0  0  0  0  0  0  0  0  0  0  0  0
    5.1846   -1.6430    0.2554 C   0  0  0  0  0  0  0  0  0  0  0  0
    6.3335   -0.8854    0.5738 O   0  0  0  0  0  0  0  0  0  0  0  0
    7.5307   -1.5048    0.3192 C   0  0  0  0  0  0  0  0  0  0  0  0
    8.6126   -0.6176    0.4284 C   0  0  0  0  0  0  0  0  0  0  0  0
    9.9121   -1.0443    0.1685 C   0  0  0  0  0  0  0  0  0  0  0  0
   10.1411   -2.3636   -0.1978 C   0  0  0  0  0  0  0  0  0  0  0  0
   11.3925   -2.7736   -0.4555 F   0  0  0  0  0  0  0  0  0  0  0  0
    9.0919   -3.2628   -0.3042 C   0  0  0  0  0  0  0  0  0  0  0  0
    7.7838   -2.8464   -0.0340 C   0  0  0  0  0  0  0  0  0  0  0  0
    6.7778   -3.8995   -0.2163 C   0  0  0  0  0  0  0  0  0  0  0  0
    6.3186   -4.2777   -1.2732 O   0  0  0  0  0  0  0  0  0  0  0  0
    6.4016   -4.4157    0.9650 O   0  0  0  0  0  0  0  0  0  0  0  0
    0.8081   -1.2219    0.6900 N   0  0  0  0  0  0  0  0  0  0  0  0
    0.1499   -0.1100    0.9372 N   0  0  0  0  0  0  0  0  0  0  0  0
    0.5238    2.1709    0.9520 H   0  0  0  0  0  0  0  0  0  0  0  0
   -0.9880    1.5274    0.1183 H   0  0  0  0  0  0  0  0  0  0  0  0
   -0.3419    2.7571    0.0000 H   0  0  0  0  0  0  0  0  0  0  0  0
    1.9074    0.6384   -1.7421 H   0  0  0  0  0  0  0  0  0  0  0  0
    2.7590   -2.5999    0.1292 H   0  0  0  0  0  0  0  0  0  0  0  0
    3.0383   -1.9003   -1.4792 H   0  0  0  0  0  0  0  0  0  0  0  0
    4.1555    0.0933   -0.4719 H   0  0  0  0  0  0  0  0  0  0  0  0
    3.6956   -0.3876    1.1490 H   0  0  0  0  0  0  0  0  0  0  0  0
    5.0154   -2.3891    1.0384 H   0  0  0  0  0  0  0  0  0  0  0  0
    5.2983   -2.0938   -0.7330 H   0  0  0  0  0  0  0  0  0  0  0  0
    8.4356    0.4200    0.7041 H   0  0  0  0  0  0  0  0  0  0  0  0
   10.7476   -0.3546    0.2431 H   0  0  0  0  0  0  0  0  0  0  0  0
    9.3067   -4.2893   -0.6001 H   0  0  0  0  0  0  0  0  0  0  0  0
    5.7228   -5.0887    0.7419 H   0  0  0  0  0  0  0  0  0  0  0  0
  1  2  1  0  0  0  0
  1 21  1  0  0  0  0
  1 22  1  0  0  0  0
  1 23  1  0  0  0  0
  2 20  1  0  0  0  0
  2  3  2  0  0  0  0
  3  4  1  0  0  0  0
  3 24  1  0  0  0  0
  4  5  1  0  0  0  0
  4 19  1  0  0  0  0
  5  6  1  0  0  0  0
  5 25  1  0  0  0  0
  5 26  1  0  0  0  0
  6  7  1  0  0  0  0
  6 27  1  0  0  0  0
  6 28  1  0  0  0  0
  7  8  1  0  0  0  0
  7 29  1  0  0  0  0
  7 30  1  0  0  0  0
  8  9  1  0  0  0  0
  9 15  2  0  0  0  0
  9 10  1  0  0  0  0
 10 11  2  0  0  0  0
 10 31  1  0  0  0  0
 11 12  1  0  0  0  0
 11 32  1  0  0  0  0
 12 13  1  0  0  0  0
 12 14  2  0  0  0  0
 14 15  1  0  0  0  0
 14 33  1  0  0  0  0
 15 16  1  0  0  0  0
 16 17  2  0  0  0  0
 16 18  1  0  0  0  0
 18 34  1  0  0  0  0
 19 20  2  0  0  0  0
M  END
$$$$
