
 OpenBabel03202621372D

 20 20  0  0  1  0  0  0  0  0999 V2000
    4.7382    1.6485   -0.6197 C   0  0  0  0  0  0  0  0  0  0  0  0
    3.4730    1.3271   -1.8708 S   0  0  0  0  0  0  0  0  0  0  0  0
    2.0596    1.4941   -0.8306 C   0  0  0  0  0  0  0  0  0  0  0  0
    1.6029    2.5840   -0.5119 O   0  0  0  0  0  0  0  0  0  0  0  0
    1.4891    0.1810   -0.3493 C   0  0  2  0  0  0  0  0  0  0  0  0
    2.4660   -0.6416    0.4431 N   0  0  0  0  0  0  0  0  0  0  0  0
    0.5874   -0.6067   -1.2721 C   0  0  0  0  0  0  0  0  0  0  0  0
    0.0000    0.0000    0.0000 C   0  0  2  0  0  0  0  0  0  0  0  0
   -0.8660    0.5000    0.0000 C   0  0  0  0  0  0  0  0  0  0  0  0
    5.6253    1.0482   -0.8453 H   0  0  0  0  0  0  0  0  0  0  0  0
    5.0161    2.7035   -0.6308 H   0  0  0  0  0  0  0  0  0  0  0  0
    4.4000    1.3832    0.3865 H   0  0  0  0  0  0  0  0  0  0  0  0
    2.0396   -1.5191    0.7364 H   0  0  0  0  0  0  0  0  0  0  0  0
    3.2416   -0.9084   -0.1653 H   0  0  0  0  0  0  0  0  0  0  0  0
    0.3429   -0.1695   -2.2383 H   0  0  0  0  0  0  0  0  0  0  0  0
    0.6737   -1.6879   -1.3188 H   0  0  0  0  0  0  0  0  0  0  0  0
   -0.1223   -0.7651    0.7850 H   0  0  0  0  0  0  0  0  0  0  0  0
   -0.7307    1.0683    0.9526 H   0  0  0  0  0  0  0  0  0  0  0  0
   -0.6960    1.2379   -0.8196 H   0  0  0  0  0  0  0  0  0  0  0  0
   -1.7926    1.0350    0.0000 H   0  0  0  0  0  0  0  0  0  0  0  0
  1  2  1  0  0  0  0
  1 10  1  0  0  0  0
  1 11  1  0  0  0  0
  1 12  1  0  0  0  0
  2  3  1  0  0  0  0
  3  4  2  0  0  0  0
  5  3  1  6  0  0  0
  5  8  1  0  0  0  0
  5  6  1  0  0  0  0
  5  7  1  0  0  0  0
  6 13  1  0  0  0  0
  6 14  1  0  0  0  0
  7  8  1  0  0  0  0
  7 15  1  0  0  0  0
  7 16  1  0  0  0  0
  8  9  1  0  0  0  0
  8 17  1  1  0  0  0
  9 18  1  0  0  0  0
  9 19  1  0  0  0  0
  9 20  1  0  0  0  0
M  END
$$$$
