
 OpenBabel03202621322D

 19 19  0  0  0  0  0  0  0  0999 V2000
   -1.4680    2.2382    0.0000 C   0  0  0  0  0  0  0  0  0  0  0  0
   -1.2601    1.2601    0.0000 S   0  0  0  0  0  0  0  0  0  0  0  0
    0.4876    1.0767    0.4728 C   0  0  0  0  0  0  0  0  0  0  0  0
    1.4957    1.8902   -0.3326 C   0  0  0  0  0  0  0  0  0  0  0  0
    2.8131    1.1681   -0.0615 C   0  0  0  0  0  0  0  0  0  0  0  0
    2.4535   -0.3042    0.1301 C   0  0  0  0  0  0  0  0  0  0  0  0
    0.9279   -0.3631    0.1882 C   0  0  0  0  0  0  0  0  0  0  0  0
   -1.8495    2.3387    1.0356 H   0  0  0  0  0  0  0  0  0  0  0  0
   -2.3407    2.2275   -0.6801 H   0  0  0  0  0  0  0  0  0  0  0  0
   -1.6905    3.2848    0.0000 H   0  0  0  0  0  0  0  0  0  0  0  0
    0.5979    1.2863    1.5446 H   0  0  0  0  0  0  0  0  0  0  0  0
    1.5372    2.9370   -0.0177 H   0  0  0  0  0  0  0  0  0  0  0  0
    1.2728    1.8585   -1.4062 H   0  0  0  0  0  0  0  0  0  0  0  0
    3.5321    1.3119   -0.8739 H   0  0  0  0  0  0  0  0  0  0  0  0
    3.2712    1.5530    0.8572 H   0  0  0  0  0  0  0  0  0  0  0  0
    2.8311   -0.9204   -0.6929 H   0  0  0  0  0  0  0  0  0  0  0  0
    2.8949   -0.6886    1.0558 H   0  0  0  0  0  0  0  0  0  0  0  0
    0.5800   -1.0663    0.9536 H   0  0  0  0  0  0  0  0  0  0  0  0
    0.5583   -0.7186   -0.7845 H   0  0  0  0  0  0  0  0  0  0  0  0
  1  2  1  0  0  0  0
  1  8  1  0  0  0  0
  1  9  1  0  0  0  0
  1 10  1  0  0  0  0
  2  3  1  0  0  0  0
  3  7  1  0  0  0  0
  3  4  1  0  0  0  0
  3 11  1  0  0  0  0
  4  5  1  0  0  0  0
  4 12  1  0  0  0  0
  4 13  1  0  0  0  0
  5  6  1  0  0  0  0
  5 14  1  0  0  0  0
  5 15  1  0  0  0  0
  6  7  1  0  0  0  0
  6 16  1  0  0  0  0
  6 17  1  0  0  0  0
  7 18  1  0  0  0  0
  7 19  1  0  0  0  0
M  END
$$$$
