
 OpenBabel03202621302D

 16 16  0  0  0  0  0  0  0  0999 V2000
    2.1628    2.7791   -0.0322 O   0  0  0  0  0  0  0  0  0  0  0  0
    1.1046    2.1766    0.0963 C   0  0  0  0  0  0  0  0  0  0  0  0
    0.9249    0.8091    0.0726 N   0  0  0  0  0  0  0  0  0  0  0  0
    2.0093   -0.0274   -0.0078 C   0  0  0  0  0  0  0  0  0  0  0  0
    1.9580   -1.3100   -0.0259 N   0  0  0  0  0  0  0  0  0  0  0  0
    0.6788   -2.0044    0.0492 C   0  0  0  0  0  0  0  0  0  0  0  0
   -0.5095   -1.1362   -0.3235 C   0  0  0  0  0  0  0  0  0  0  0  0
   -0.3856    0.2378    0.2982 C   0  0  0  0  0  0  0  0  0  0  0  0
    0.1548    2.7244    0.2232 H   0  0  0  0  0  0  0  0  0  0  0  0
    2.9815    0.4808   -0.0738 H   0  0  0  0  0  0  0  0  0  0  0  0
    0.7132   -2.8571   -0.6425 H   0  0  0  0  0  0  0  0  0  0  0  0
    0.5539   -2.4213    1.0546 H   0  0  0  0  0  0  0  0  0  0  0  0
   -1.4397   -1.6157   -0.0005 H   0  0  0  0  0  0  0  0  0  0  0  0
   -0.5596   -1.0393   -1.4139 H   0  0  0  0  0  0  0  0  0  0  0  0
   -1.1529    0.9080   -0.1092 H   0  0  0  0  0  0  0  0  0  0  0  0
   -0.5377    0.1892    1.3806 H   0  0  0  0  0  0  0  0  0  0  0  0
  1  2  2  0  0  0  0
  2  3  1  0  0  0  0
  2  9  1  0  0  0  0
  3  8  1  0  0  0  0
  3  4  1  0  0  0  0
  4  5  2  0  0  0  0
  4 10  1  0  0  0  0
  5  6  1  0  0  0  0
  6  7  1  0  0  0  0
  6 11  1  0  0  0  0
  6 12  1  0  0  0  0
  7  8  1  0  0  0  0
  7 13  1  0  0  0  0
  7 14  1  0  0  0  0
  8 15  1  0  0  0  0
  8 16  1  0  0  0  0
M  END
$$$$
