
 OpenBabel03202621312D

 13 13  0  0  0  0  0  0  0  0999 V2000
    2.5116    0.2496   -0.0000 N   0  0  0  0  0  0  0  0  0  0  0  0
    1.3096   -0.4071   -0.0000 C   0  0  0  0  0  0  0  0  0  0  0  0
    1.2781   -1.7524   -0.0000 N   0  0  0  0  0  0  0  0  0  0  0  0
    0.0713   -2.3925   -0.0000 N   0  0  0  0  0  0  0  0  0  0  0  0
   -1.0466   -1.6476   -0.0000 C   0  0  0  0  0  0  0  0  0  0  0  0
   -2.2587   -2.3661   -0.0000 O   0  0  0  0  0  0  0  0  0  0  0  0
   -3.4429   -1.6660    0.0000 C   0  0  0  0  0  0  0  0  0  0  0  0
   -3.6385   -0.4625   -0.0000 O   0  0  0  0  0  0  0  0  0  0  0  0
   -1.0228   -0.3078    0.0000 N   0  0  0  0  0  0  0  0  0  0  0  0
    0.1846    0.3242    0.0000 N   0  0  0  0  0  0  0  0  0  0  0  0
    3.3619   -0.2852    0.0000 H   0  0  0  0  0  0  0  0  0  0  0  0
    2.4906    1.2567    0.0000 H   0  0  0  0  0  0  0  0  0  0  0  0
   -4.2563   -2.4018    0.0000 H   0  0  0  0  0  0  0  0  0  0  0  0
  1  2  1  0  0  0  0
  1 11  1  0  0  0  0
  1 12  1  0  0  0  0
  2 10  2  0  0  0  0
  2  3  1  0  0  0  0
  3  4  2  0  0  0  0
  4  5  1  0  0  0  0
  5  6  1  0  0  0  0
  5  9  2  0  0  0  0
  6  7  1  0  0  0  0
  7  8  2  0  0  0  0
  7 13  1  0  0  0  0
  9 10  1  0  0  0  0
M  END
$$$$
