
 OpenBabel03202621322D

 27 28  0  0  1  0  0  0  0  0999 V2000
    1.5878    0.8090    0.0000 C   0  0  0  0  0  0  0  0  0  0  0  0
    1.0000    0.0000    0.0000 C   0  0  0  0  0  0  0  0  0  0  0  0
    1.0671   -1.0936   -0.8543 C   0  0  0  0  0  0  0  0  0  0  0  0
    0.3495   -2.0825   -0.2497 N   0  0  0  0  0  0  0  0  0  0  0  0
    0.4020   -3.4982   -0.5253 C   0  0  0  0  0  0  0  0  0  0  0  0
    1.3533   -4.2742    0.3946 C   0  0  2  0  0  0  0  0  0  0  0  0
    1.2541   -5.6719    0.0445 O   0  0  0  0  0  0  0  0  0  0  0  0
    2.8129   -3.8557    0.2808 C   0  0  0  0  0  0  0  0  0  0  0  0
    3.3126   -2.7757    1.0058 C   0  0  0  0  0  0  0  0  0  0  0  0
    4.6569   -2.4381    0.8722 C   0  0  0  0  0  0  0  0  0  0  0  0
    5.4742   -3.2005    0.0475 C   0  0  0  0  0  0  0  0  0  0  0  0
    4.9087   -4.2715   -0.6223 C   0  0  0  0  0  0  0  0  0  0  0  0
    3.6014   -4.6102   -0.5351 N   0  0  0  0  0  0  0  0  0  0  0  0
   -0.3019   -1.6111    0.8182 N   0  0  0  0  0  0  0  0  0  0  0  0
    0.0747   -0.3510    0.9813 N   0  0  0  0  0  0  0  0  0  0  0  0
    2.1053    0.6674    0.9790 H   0  0  0  0  0  0  0  0  0  0  0  0
    0.8092    1.6036    0.0814 H   0  0  0  0  0  0  0  0  0  0  0  0
    2.2167    1.6746    0.0000 H   0  0  0  0  0  0  0  0  0  0  0  0
    1.6834   -1.2914   -1.7218 H   0  0  0  0  0  0  0  0  0  0  0  0
    0.6804   -3.6286   -1.5782 H   0  0  0  0  0  0  0  0  0  0  0  0
   -0.6183   -3.8891   -0.4261 H   0  0  0  0  0  0  0  0  0  0  0  0
    1.0399   -4.1949    1.4416 H   0  0  0  0  0  0  0  0  0  0  0  0
    2.1416   -5.9139   -0.2950 H   0  0  0  0  0  0  0  0  0  0  0  0
    2.6706   -2.1970    1.6638 H   0  0  0  0  0  0  0  0  0  0  0  0
    5.0638   -1.5886    1.4153 H   0  0  0  0  0  0  0  0  0  0  0  0
    6.5277   -2.9705   -0.0630 H   0  0  0  0  0  0  0  0  0  0  0  0
    5.5133   -4.9083   -1.2631 H   0  0  0  0  0  0  0  0  0  0  0  0
  1  2  1  0  0  0  0
  1 16  1  0  0  0  0
  1 17  1  0  0  0  0
  1 18  1  0  0  0  0
  2 15  1  0  0  0  0
  2  3  2  0  0  0  0
  3  4  1  0  0  0  0
  3 19  1  0  0  0  0
  4  5  1  0  0  0  0
  4 14  1  0  0  0  0
  5  6  1  0  0  0  0
  5 20  1  0  0  0  0
  5 21  1  0  0  0  0
  6  7  1  0  0  0  0
  6  8  1  0  0  0  0
  6 22  1  6  0  0  0
  7 23  1  0  0  0  0
  8 13  2  0  0  0  0
  8  9  1  0  0  0  0
  9 10  2  0  0  0  0
  9 24  1  0  0  0  0
 10 11  1  0  0  0  0
 10 25  1  0  0  0  0
 11 12  2  0  0  0  0
 11 26  1  0  0  0  0
 12 13  1  0  0  0  0
 12 27  1  0  0  0  0
 14 15  2  0  0  0  0
M  END
$$$$
