
 OpenBabel03202621312D

 19 19  0  0  1  0  0  0  0  0999 V2000
    0.1559   -3.4796   -0.1276 N   0  0  0  0  0  0  0  0  0  0  0  0
    0.7476   -2.1591    0.0942 C   0  0  0  0  0  0  0  0  0  0  0  0
   -0.1626   -1.0071   -0.3661 C   0  0  3  0  0  0  0  0  0  0  0  0
   -1.5690   -1.0883    0.2065 C   0  0  0  0  0  0  0  0  0  0  0  0
   -1.9278    0.2989    0.3824 N   0  0  0  0  0  0  0  0  0  0  0  0
   -3.1881    0.8124    0.1791 C   0  0  0  0  0  0  0  0  0  0  0  0
   -3.4747    1.9993    0.0492 O   0  0  0  0  0  0  0  0  0  0  0  0
   -0.8125    1.1299    0.3663 N   0  0  0  0  0  0  0  0  0  0  0  0
    0.3514    0.3247    0.0432 N   0  0  0  0  0  0  0  0  0  0  0  0
   -0.0213   -3.6222   -1.1216 H   0  0  0  0  0  0  0  0  0  0  0  0
    0.8325   -4.1959    0.1406 H   0  0  0  0  0  0  0  0  0  0  0  0
    0.9713   -2.0593    1.1631 H   0  0  0  0  0  0  0  0  0  0  0  0
    1.7039   -2.1026   -0.4394 H   0  0  0  0  0  0  0  0  0  0  0  0
   -0.2223   -1.0121   -1.4630 H   0  0  0  0  0  0  0  0  0  0  0  0
   -1.6117   -1.5675    1.1902 H   0  0  0  0  0  0  0  0  0  0  0  0
   -2.2694   -1.5820   -0.4752 H   0  0  0  0  0  0  0  0  0  0  0  0
   -3.9560    0.0228    0.1325 H   0  0  0  0  0  0  0  0  0  0  0  0
   -0.9724    1.8882   -0.3116 H   0  0  0  0  0  0  0  0  0  0  0  0
    0.9143    0.2282    0.8922 H   0  0  0  0  0  0  0  0  0  0  0  0
  1  2  1  0  0  0  0
  1 10  1  0  0  0  0
  1 11  1  0  0  0  0
  2  3  1  0  0  0  0
  2 12  1  0  0  0  0
  2 13  1  0  0  0  0
  3  9  1  0  0  0  0
  3  4  1  0  0  0  0
  3 14  1  0  0  0  0
  4  5  1  0  0  0  0
  4 15  1  0  0  0  0
  4 16  1  0  0  0  0
  5  6  1  0  0  0  0
  5  8  1  0  0  0  0
  6  7  2  0  0  0  0
  6 17  1  0  0  0  0
  8  9  1  0  0  0  0
  8 18  1  0  0  0  0
  9 19  1  0  0  0  0
M  END
$$$$
