
 OpenBabel03202621352D

 30 31  0  0  0  0  0  0  0  0999 V2000
    0.0933    1.7796    0.0000 C   0  0  0  0  0  0  0  0  0  0  0  0
    0.5000    0.8660    0.0000 C   0  0  0  0  0  0  0  0  0  0  0  0
    1.6486    0.3304    0.5629 C   0  0  0  0  0  0  0  0  0  0  0  0
    1.7087   -0.9752    0.1551 N   0  0  0  0  0  0  0  0  0  0  0  0
    2.7879   -1.9283    0.2415 C   0  0  0  0  0  0  0  0  0  0  0  0
    4.0749   -1.2200    0.5111 C   0  0  0  0  0  0  0  0  0  0  0  0
    4.5903   -1.1445    1.6159 O   0  0  0  0  0  0  0  0  0  0  0  0
    4.4869   -0.5508   -0.6030 O   0  0  0  0  0  0  0  0  0  0  0  0
    5.3099    0.5916   -0.3420 C   0  0  0  0  0  0  0  0  0  0  0  0
    6.7867    0.3059   -0.2986 C   0  0  0  0  0  0  0  0  0  0  0  0
    7.6618    1.3768   -0.0656 C   0  0  0  0  0  0  0  0  0  0  0  0
    9.0361    1.1666    0.0255 C   0  0  0  0  0  0  0  0  0  0  0  0
    9.5512   -0.1191   -0.1129 C   0  0  0  0  0  0  0  0  0  0  0  0
    8.6942   -1.1914   -0.3519 C   0  0  0  0  0  0  0  0  0  0  0  0
    7.3188   -0.9809   -0.4504 C   0  0  0  0  0  0  0  0  0  0  0  0
    0.5964   -1.3241   -0.4883 N   0  0  0  0  0  0  0  0  0  0  0  0
   -0.1433   -0.2380   -0.5857 N   0  0  0  0  0  0  0  0  0  0  0  0
    0.9208    2.3457   -0.4949 H   0  0  0  0  0  0  0  0  0  0  0  0
   -0.7124    1.6902   -0.7713 H   0  0  0  0  0  0  0  0  0  0  0  0
   -0.3419    2.7571    0.0000 H   0  0  0  0  0  0  0  0  0  0  0  0
    2.4302    0.7908    1.1514 H   0  0  0  0  0  0  0  0  0  0  0  0
    2.8583   -2.4786   -0.7035 H   0  0  0  0  0  0  0  0  0  0  0  0
    2.5614   -2.6351    1.0440 H   0  0  0  0  0  0  0  0  0  0  0  0
    4.9928    1.0817    0.5887 H   0  0  0  0  0  0  0  0  0  0  0  0
    5.1116    1.3002   -1.1542 H   0  0  0  0  0  0  0  0  0  0  0  0
    7.2723    2.3876    0.0573 H   0  0  0  0  0  0  0  0  0  0  0  0
    9.7022    2.0045    0.2129 H   0  0  0  0  0  0  0  0  0  0  0  0
   10.6210   -0.2877   -0.0306 H   0  0  0  0  0  0  0  0  0  0  0  0
    9.0945   -2.1966   -0.4530 H   0  0  0  0  0  0  0  0  0  0  0  0
    6.6725   -1.8346   -0.6302 H   0  0  0  0  0  0  0  0  0  0  0  0
  1  2  1  0  0  0  0
  1 18  1  0  0  0  0
  1 19  1  0  0  0  0
  1 20  1  0  0  0  0
  2 17  1  0  0  0  0
  2  3  2  0  0  0  0
  3  4  1  0  0  0  0
  3 21  1  0  0  0  0
  4  5  1  0  0  0  0
  4 16  1  0  0  0  0
  5  6  1  0  0  0  0
  5 22  1  0  0  0  0
  5 23  1  0  0  0  0
  6  7  2  0  0  0  0
  6  8  1  0  0  0  0
  8  9  1  0  0  0  0
  9 10  1  0  0  0  0
  9 24  1  0  0  0  0
  9 25  1  0  0  0  0
 10 15  2  0  0  0  0
 10 11  1  0  0  0  0
 11 12  2  0  0  0  0
 11 26  1  0  0  0  0
 12 13  1  0  0  0  0
 12 27  1  0  0  0  0
 13 14  2  0  0  0  0
 13 28  1  0  0  0  0
 14 15  1  0  0  0  0
 14 29  1  0  0  0  0
 15 30  1  0  0  0  0
 16 17  2  0  0  0  0
M  END
$$$$
