
 OpenBabel03202621352D

 48 50  0  0  1  0  0  0  0  0999 V2000
    6.7962    0.0320   -0.1780 O   0  0  0  0  0  0  0  0  0  0  0  0
    6.9138   -1.3369   -0.1225 C   0  0  0  0  0  0  0  0  0  0  0  0
    8.0840   -1.9813   -0.1248 C   0  0  0  0  0  0  0  0  0  0  0  0
    8.2439   -3.3405   -0.0597 O   0  0  0  0  0  0  0  0  0  0  0  0
    7.0551   -4.1501   -0.0375 C   0  0  0  0  0  0  0  0  0  0  0  0
    5.7402   -3.4207    0.0013 C   0  0  0  0  0  0  0  0  0  0  0  0
    5.6788   -2.0839   -0.0465 C   0  0  0  0  0  0  0  0  0  0  0  0
    4.5634   -1.2969   -0.0340 O   0  0  0  0  0  0  0  0  0  0  0  0
    3.2847   -1.9074    0.0854 C   0  0  0  0  0  0  0  0  0  0  0  0
    2.2813   -0.7545    0.1021 C   0  0  2  0  0  0  0  0  0  0  0  0
    2.4959    0.0053    1.2992 O   0  0  0  0  0  0  0  0  0  0  0  0
    0.8717   -1.3061    0.0838 C   0  0  0  0  0  0  0  0  0  0  0  0
   -0.1617   -0.2967    0.1123 N   0  0  0  0  0  0  0  0  0  0  0  0
   -1.4428   -0.5307    0.5108 C   0  0  0  0  0  0  0  0  0  0  0  0
   -2.1670    0.3711   -0.2376 C   0  0  0  0  0  0  0  0  0  0  0  0
   -3.6074    0.3150   -0.5572 C   0  0  0  0  0  0  0  0  0  0  0  0
   -3.9397   -1.0437   -0.8665 O   0  0  0  0  0  0  0  0  0  0  0  0
   -5.0579   -1.4993   -0.1273 C   0  0  1  0  0  0  0  0  0  0  0  0
   -5.1905   -2.9998   -0.3400 C   0  0  0  0  0  0  0  0  0  0  0  0
   -6.6047   -3.5392   -0.1555 C   0  0  0  0  0  0  0  0  0  0  0  0
   -7.6628   -2.5599    0.3509 C   0  0  0  0  0  0  0  0  0  0  0  0
   -7.2988   -1.0809    0.2942 C   0  0  0  0  0  0  0  0  0  0  0  0
   -6.2204   -0.8339   -0.5840 O   0  0  0  0  0  0  0  0  0  0  0  0
   -1.3136    1.2446   -0.8523 N   0  0  0  0  0  0  0  0  0  0  0  0
   -0.0768    0.8179   -0.6368 N   0  0  0  0  0  0  0  0  0  0  0  0
    7.6854    0.4106   -0.2366 H   0  0  0  0  0  0  0  0  0  0  0  0
    9.0477   -1.4888   -0.1669 H   0  0  0  0  0  0  0  0  0  0  0  0
    7.0803   -4.7858   -0.9302 H   0  0  0  0  0  0  0  0  0  0  0  0
    7.1299   -4.8072    0.8350 H   0  0  0  0  0  0  0  0  0  0  0  0
    4.8518   -4.0378    0.0601 H   0  0  0  0  0  0  0  0  0  0  0  0
    3.2301   -2.4660    1.0289 H   0  0  0  0  0  0  0  0  0  0  0  0
    3.0987   -2.5755   -0.7631 H   0  0  0  0  0  0  0  0  0  0  0  0
    2.4571   -0.0878   -0.7514 H   0  0  0  0  0  0  0  0  0  0  0  0
    3.3718    0.4247    1.1824 H   0  0  0  0  0  0  0  0  0  0  0  0
    0.6983   -1.8866   -0.8319 H   0  0  0  0  0  0  0  0  0  0  0  0
    0.6994   -1.9629    0.9445 H   0  0  0  0  0  0  0  0  0  0  0  0
   -1.7327   -1.4043    1.0747 H   0  0  0  0  0  0  0  0  0  0  0  0
   -3.8260    0.9178   -1.4439 H   0  0  0  0  0  0  0  0  0  0  0  0
   -4.1901    0.7132    0.2823 H   0  0  0  0  0  0  0  0  0  0  0  0
   -4.8859   -1.3038    0.9408 H   0  0  0  0  0  0  0  0  0  0  0  0
   -4.8446   -3.2688   -1.3473 H   0  0  0  0  0  0  0  0  0  0  0  0
   -4.4946   -3.5205    0.3321 H   0  0  0  0  0  0  0  0  0  0  0  0
   -6.5790   -4.4152    0.5049 H   0  0  0  0  0  0  0  0  0  0  0  0
   -6.9407   -3.9292   -1.1257 H   0  0  0  0  0  0  0  0  0  0  0  0
   -7.9460   -2.8101    1.3788 H   0  0  0  0  0  0  0  0  0  0  0  0
   -8.5732   -2.7123   -0.2404 H   0  0  0  0  0  0  0  0  0  0  0  0
   -8.1559   -0.4925   -0.0498 H   0  0  0  0  0  0  0  0  0  0  0  0
   -7.0467   -0.7057    1.2935 H   0  0  0  0  0  0  0  0  0  0  0  0
  1  2  1  0  0  0  0
  1 26  1  0  0  0  0
  2  7  1  0  0  0  0
  2  3  2  0  0  0  0
  3  4  1  0  0  0  0
  3 27  1  0  0  0  0
  4  5  1  0  0  0  0
  5  6  1  0  0  0  0
  5 28  1  0  0  0  0
  5 29  1  0  0  0  0
  6  7  2  0  0  0  0
  6 30  1  0  0  0  0
  7  8  1  0  0  0  0
  8  9  1  0  0  0  0
  9 10  1  0  0  0  0
  9 31  1  0  0  0  0
  9 32  1  0  0  0  0
 10 11  1  0  0  0  0
 10 12  1  0  0  0  0
 10 33  1  6  0  0  0
 11 34  1  0  0  0  0
 12 13  1  0  0  0  0
 12 35  1  0  0  0  0
 12 36  1  0  0  0  0
 13 25  1  0  0  0  0
 13 14  1  0  0  0  0
 14 15  2  0  0  0  0
 14 37  1  0  0  0  0
 15 16  1  0  0  0  0
 15 24  1  0  0  0  0
 16 17  1  0  0  0  0
 16 38  1  0  0  0  0
 16 39  1  0  0  0  0
 18 17  1  0  0  0  0
 18 19  1  0  0  0  0
 18 23  1  0  0  0  0
 18 40  1  6  0  0  0
 19 20  1  0  0  0  0
 19 41  1  0  0  0  0
 19 42  1  0  0  0  0
 20 21  1  0  0  0  0
 20 43  1  0  0  0  0
 20 44  1  0  0  0  0
 21 22  1  0  0  0  0
 21 45  1  0  0  0  0
 21 46  1  0  0  0  0
 22 23  1  0  0  0  0
 22 47  1  0  0  0  0
 22 48  1  0  0  0  0
 24 25  2  0  0  0  0
M  END
$$$$
