
 OpenBabel03202621282D

 31 31  0  0  1  0  0  0  0  0999 V2000
    3.4641   -5.0000    0.0000 C   0  0  0  0  0  0  0  0  0  0  0  0
    4.3301   -4.5000    0.0000 O   0  0  0  0  0  0  0  0  0  0  0  0
    4.3301   -3.5000    0.0000 C   0  0  0  0  0  0  0  0  0  0  0  0
    5.1962   -3.0000    0.0000 O   0  0  0  0  0  0  0  0  0  0  0  0
    3.4641   -3.0000    0.0000 N   0  0  0  0  0  0  0  0  0  0  0  0
    3.4641   -2.0000    0.0000 C   0  0  0  0  0  0  0  0  0  0  0  0
    2.5981   -1.5000    0.0000 C   0  0  0  0  0  0  0  0  0  0  0  0
    1.7321   -2.0000    0.0000 C   0  0  0  0  0  0  0  0  0  0  0  0
    0.8660   -1.5000    0.0000 C   0  0  3  0  0  0  0  0  0  0  0  0
    1.3660   -0.6340    0.0000 O   0  0  0  0  0  0  0  0  0  0  0  0
    0.0000   -1.0000    0.0000 C   0  0  0  0  0  0  0  0  0  0  0  0
   -0.8660   -1.5000    0.0000 C   0  0  0  0  0  0  0  0  0  0  0  0
   -1.7321   -1.0000    0.0000 C   0  0  0  0  0  0  0  0  0  0  0  0
   -1.7321   -0.0000    0.0000 C   0  0  0  0  0  0  0  0  0  0  0  0
   -0.8660    0.5000    0.0000 C   0  0  0  0  0  0  0  0  0  0  0  0
    0.0000    0.0000    0.0000 C   0  0  0  0  0  0  0  0  0  0  0  0
    0.8660    0.5000    0.0000 O   0  5  0  0  0  0  0  0  0  0  0  0
    0.3660   -2.3660    0.0000 C   0  0  1  0  0  0  0  0  0  0  0  0
   -0.6340   -2.3660    0.0000 C   0  0  0  0  0  0  0  0  0  0  0  0
   -1.1340   -3.2321    0.0000 C   0  0  0  0  0  0  0  0  0  0  0  0
   -2.1340   -3.2321    0.0000 O   0  0  0  0  0  0  0  0  0  0  0  0
    0.8660   -3.2321    0.0000 C   0  0  0  0  0  0  0  0  0  0  0  0
    0.3660   -4.0981    0.0000 O   0  0  0  0  0  0  0  0  0  0  0  0
    1.8660   -3.2321    0.0000 C   0  0  1  0  0  0  0  0  0  0  0  0
    2.3660   -2.3660    0.0000 O   0  0  0  0  0  0  0  0  0  0  0  0
    2.3660   -4.0981    0.0000 C   0  0  0  0  0  0  0  0  0  0  0  0
    3.3660   -4.0981    0.0000 O   0  0  0  0  0  0  0  0  0  0  0  0
    1.8660   -4.9641    0.0000 C   0  0  0  0  0  0  0  0  0  0  0  0
    2.3660   -5.8301    0.0000 C   0  0  0  0  0  0  0  0  0  0  0  0
    3.3660   -5.8301    0.0000 C   0  0  0  0  0  0  0  0  0  0  0  0
    1.8660   -6.6962    0.0000 O   0  0  0  0  0  0  0  0  0  0  0  0
  1  2  1  0  0  0  0
  2  3  1  0  0  0  0
  3  4  2  0  0  0  0
  3  5  1  0  0  0  0
  5  6  1  0  0  0  0
  6  7  1  0  0  0  0
  7  8  2  3  0  0  0
  8  9  1  0  0  0  0
  9 10  1  0  0  0  0
  9 11  1  0  0  0  0
  9 18  1  0  0  0  0
 11 16  2  0  0  0  0
 11 12  1  0  0  0  0
 12 13  2  0  0  0  0
 13 14  1  0  0  0  0
 14 15  2  0  0  0  0
 15 16  1  0  0  0  0
 16 17  1  0  0  0  0
 18 19  1  6  0  0  0
 18 22  1  0  0  0  0
 19 20  1  0  0  0  0
 20 21  1  0  0  0  0
 22 23  2  0  0  0  0
 22 24  1  0  0  0  0
 24 25  1  1  0  0  0
 24 26  1  0  0  0  0
 26 27  2  0  0  0  0
 26 28  1  0  0  0  0
 28 29  1  0  0  0  0
 29 30  1  0  0  0  0
 29 31  2  0  0  0  0
M  CHG  1  17  -1
M  END
$$$$
