
 OpenBabel03202621302D

 19 18  0  0  0  0  0  0  0  0999 V2000
    2.5981    1.5000    0.0000 C   0  0  0  0  0  0  0  0  0  0  0  0
    1.7321    2.0000    0.0000 O   0  0  0  0  0  0  0  0  0  0  0  0
    0.6131    1.6818    0.6288 C   0  0  0  0  0  0  0  0  0  0  0  0
   -0.4590    2.6745    0.0851 C   0  0  0  0  0  0  0  0  0  0  0  0
   -1.7481    2.0879   -0.1477 O   0  0  0  0  0  0  0  0  0  0  0  0
   -2.0364    1.7851   -1.4387 C   0  0  0  0  0  0  0  0  0  0  0  0
   -3.0923    1.2881   -1.7979 O   0  0  0  0  0  0  0  0  0  0  0  0
    0.8660    0.5000    0.0000 O   0  0  0  0  0  0  0  0  0  0  0  0
    0.0000    0.0000    0.0000 C   0  0  0  0  0  0  0  0  0  0  0  0
    3.0242    1.8861   -0.9481 H   0  0  0  0  0  0  0  0  0  0  0  0
    3.1185    2.0263    0.8289 H   0  0  0  0  0  0  0  0  0  0  0  0
    3.5247    0.9650    0.0000 H   0  0  0  0  0  0  0  0  0  0  0  0
    0.6848    1.6504    1.7262 H   0  0  0  0  0  0  0  0  0  0  0  0
   -0.1047    3.1845   -0.8203 H   0  0  0  0  0  0  0  0  0  0  0  0
   -0.5973    3.4744    0.8234 H   0  0  0  0  0  0  0  0  0  0  0  0
   -1.2094    2.0006   -2.1350 H   0  0  0  0  0  0  0  0  0  0  0  0
    0.2307   -0.7704    0.7686 H   0  0  0  0  0  0  0  0  0  0  0  0
    0.0874   -0.5018   -0.9854 H   0  0  0  0  0  0  0  0  0  0  0  0
   -0.9266   -0.5350    0.0000 H   0  0  0  0  0  0  0  0  0  0  0  0
  1  2  1  0  0  0  0
  1 10  1  0  0  0  0
  1 11  1  0  0  0  0
  1 12  1  0  0  0  0
  2  3  1  0  0  0  0
  3  4  1  0  0  0  0
  3  8  1  0  0  0  0
  3 13  1  0  0  0  0
  4  5  1  0  0  0  0
  4 14  1  0  0  0  0
  4 15  1  0  0  0  0
  5  6  1  0  0  0  0
  6  7  2  0  0  0  0
  6 16  1  0  0  0  0
  8  9  1  0  0  0  0
  9 17  1  0  0  0  0
  9 18  1  0  0  0  0
  9 19  1  0  0  0  0
M  END
$$$$
