
 OpenBabel03202621292D

 25 25  0  0  1  0  0  0  0  0999 V2000
   -2.5511   -2.6579   -0.5379 N   0  0  0  0  0  0  0  0  0  0  0  0
   -1.4181   -3.3807   -0.7823 C   0  0  0  0  0  0  0  0  0  0  0  0
   -1.5203   -4.3438   -1.5493 O   0  0  0  0  0  0  0  0  0  0  0  0
    0.0000   -3.0000    0.0000 C   0  0  2  0  0  0  0  0  0  0  0  0
    1.1143   -3.1952   -1.0875 O   0  0  0  0  0  0  0  0  0  0  0  0
    0.0000   -2.0000    0.0000 C   0  0  0  0  0  0  0  0  0  0  0  0
   -0.8593   -1.2633    0.9448 O   0  0  0  0  0  0  0  0  0  0  0  0
   -0.8465    0.1172    0.6734 C   0  0  0  0  0  0  0  0  0  0  0  0
   -1.9759    0.7816    0.3572 C   0  0  0  0  0  0  0  0  0  0  0  0
   -2.1036    2.1060    0.0340 O   0  0  0  0  0  0  0  0  0  0  0  0
   -0.9707    2.9157    0.3653 C   0  0  0  0  0  0  0  0  0  0  0  0
    0.3342    2.2754   -0.0352 C   0  0  0  0  0  0  0  0  0  0  0  0
    0.4133    0.9322    0.6335 C   0  0  0  0  0  0  0  0  0  0  0  0
    1.4762    0.4979    1.0849 O   0  0  0  0  0  0  0  0  0  0  0  0
   -2.5877   -1.9436    0.1757 H   0  0  0  0  0  0  0  0  0  0  0  0
   -3.4072   -2.9558   -0.9867 H   0  0  0  0  0  0  0  0  0  0  0  0
    0.0000   -4.0700    0.0000 H   0  0  0  0  0  0  0  0  0  0  0  0
    1.5945   -4.0146   -0.8672 H   0  0  0  0  0  0  0  0  0  0  0  0
    0.9874   -1.6312    0.3236 H   0  0  0  0  0  0  0  0  0  0  0  0
   -0.1295   -1.4523   -0.9587 H   0  0  0  0  0  0  0  0  0  0  0  0
   -2.9411    0.2997    0.2821 H   0  0  0  0  0  0  0  0  0  0  0  0
   -1.0908    3.8786   -0.1510 H   0  0  0  0  0  0  0  0  0  0  0  0
   -0.9980    3.1209    1.4431 H   0  0  0  0  0  0  0  0  0  0  0  0
    0.4008    2.1258   -1.1220 H   0  0  0  0  0  0  0  0  0  0  0  0
    1.1783    2.8986    0.2858 H   0  0  0  0  0  0  0  0  0  0  0  0
  1  2  1  0  0  0  0
  1 15  1  0  0  0  0
  1 16  1  0  0  0  0
  2  3  2  0  0  0  0
  2  4  1  0  0  0  0
  4  5  1  0  0  0  0
  4  6  1  0  0  0  0
  4 17  1  6  0  0  0
  5 18  1  0  0  0  0
  6  7  1  0  0  0  0
  6 19  1  0  0  0  0
  6 20  1  0  0  0  0
  7  8  1  0  0  0  0
  8 13  1  0  0  0  0
  8  9  2  0  0  0  0
  9 10  1  0  0  0  0
  9 21  1  0  0  0  0
 10 11  1  0  0  0  0
 11 12  1  0  0  0  0
 11 22  1  0  0  0  0
 11 23  1  0  0  0  0
 12 13  1  0  0  0  0
 12 24  1  0  0  0  0
 12 25  1  0  0  0  0
 13 14  2  0  0  0  0
M  END
$$$$
