
 OpenBabel03202621342D

 26 27  0  0  1  0  0  0  0  0999 V2000
   -1.9565   -1.2759    0.6090 N   0  0  0  0  0  0  0  0  0  0  0  0
   -1.3554   -0.0552    0.4161 C   0  0  0  0  0  0  0  0  0  0  0  0
   -2.1268    1.0334    0.4215 N   0  0  0  0  0  0  0  0  0  0  0  0
   -1.5048    2.2101    0.2089 C   0  0  0  0  0  0  0  0  0  0  0  0
   -0.1536    2.3234   -0.0157 C   0  0  0  0  0  0  0  0  0  0  0  0
    0.4087    3.5145   -0.2556 F   0  0  0  0  0  0  0  0  0  0  0  0
    0.5733    1.1498   -0.0321 C   0  0  0  0  0  0  0  0  0  0  0  0
    2.0663    1.1672   -0.3926 C   0  0  3  0  0  0  0  0  0  0  0  0
    2.1853    1.7959   -1.6820 O   0  0  0  0  0  0  0  0  0  0  0  0
    2.8871    1.9607    0.6445 C   0  0  0  0  0  0  0  0  0  0  0  0
    4.3782    1.7647    0.3828 C   0  0  0  0  0  0  0  0  0  0  0  0
    4.7803    0.3978    0.4994 O   0  0  0  0  0  0  0  0  0  0  0  0
    3.9310   -0.4867   -0.1021 C   0  0  0  0  0  0  0  0  0  0  0  0
    2.6986   -0.2162   -0.5513 C   0  0  0  0  0  0  0  0  0  0  0  0
    1.9605   -1.2433   -1.1260 O   0  0  0  0  0  0  0  0  0  0  0  0
   -0.0382   -0.0528    0.1751 N   0  0  0  0  0  0  0  0  0  0  0  0
   -2.9292   -1.2428    0.3361 H   0  0  0  0  0  0  0  0  0  0  0  0
   -1.3959   -2.0301    0.2411 H   0  0  0  0  0  0  0  0  0  0  0  0
   -2.1448    3.0867    0.2087 H   0  0  0  0  0  0  0  0  0  0  0  0
    2.0655    2.7531   -1.5618 H   0  0  0  0  0  0  0  0  0  0  0  0
    2.6524    1.6095    1.6584 H   0  0  0  0  0  0  0  0  0  0  0  0
    2.6644    3.0328    0.6006 H   0  0  0  0  0  0  0  0  0  0  0  0
    4.6631    2.1345   -0.6104 H   0  0  0  0  0  0  0  0  0  0  0  0
    4.9593    2.3352    1.1153 H   0  0  0  0  0  0  0  0  0  0  0  0
    4.3710   -1.4752   -0.1581 H   0  0  0  0  0  0  0  0  0  0  0  0
    1.0186   -1.0295   -0.9602 H   0  0  0  0  0  0  0  0  0  0  0  0
  1  2  1  0  0  0  0
  1 17  1  0  0  0  0
  1 18  1  0  0  0  0
  2 16  2  0  0  0  0
  2  3  1  0  0  0  0
  3  4  2  0  0  0  0
  4  5  1  0  0  0  0
  4 19  1  0  0  0  0
  5  6  1  0  0  0  0
  5  7  2  0  0  0  0
  7  8  1  0  0  0  0
  7 16  1  0  0  0  0
  8 14  1  0  0  0  0
  8  9  1  0  0  0  0
  8 10  1  0  0  0  0
  9 20  1  0  0  0  0
 10 11  1  0  0  0  0
 10 21  1  0  0  0  0
 10 22  1  0  0  0  0
 11 12  1  0  0  0  0
 11 23  1  0  0  0  0
 11 24  1  0  0  0  0
 12 13  1  0  0  0  0
 13 14  2  0  0  0  0
 13 25  1  0  0  0  0
 14 15  1  0  0  0  0
 15 26  1  0  0  0  0
M  END
$$$$
