
 OpenBabel03202621292D

 17 17  0  0  1  0  0  0  0  0999 V2000
    3.2756   -1.1580    0.2483 C   0  0  0  0  0  0  0  0  0  0  0  0
    2.2650   -0.2861    0.1021 C   0  0  0  0  0  0  0  0  0  0  0  0
    0.9103   -0.5630   -0.5077 C   0  0  3  0  0  0  0  0  0  0  0  0
    0.4679   -1.9608   -0.3836 N   0  0  0  0  0  0  0  0  0  0  0  0
   -0.9284   -1.9282    0.0202 N   0  0  0  0  0  0  0  0  0  0  0  0
   -1.2977   -0.5812    0.2733 N   0  0  0  0  0  0  0  0  0  0  0  0
   -0.1398    0.1820    0.1540 N   0  0  0  0  0  0  0  0  0  0  0  0
   -0.2632    1.5564    0.1190 C   0  0  0  0  0  0  0  0  0  0  0  0
   -1.2434    2.2080    0.4685 O   0  0  0  0  0  0  0  0  0  0  0  0
    3.2101   -2.1892   -0.0862 H   0  0  0  0  0  0  0  0  0  0  0  0
    4.2193   -0.8440    0.6885 H   0  0  0  0  0  0  0  0  0  0  0  0
    2.4496    0.7330    0.4324 H   0  0  0  0  0  0  0  0  0  0  0  0
    0.9233   -0.2539   -1.5610 H   0  0  0  0  0  0  0  0  0  0  0  0
    0.9856   -2.3678    0.3949 H   0  0  0  0  0  0  0  0  0  0  0  0
   -1.5320   -2.3381   -0.7026 H   0  0  0  0  0  0  0  0  0  0  0  0
   -1.6945   -0.4455    1.2090 H   0  0  0  0  0  0  0  0  0  0  0  0
    0.6563    2.0539   -0.2176 H   0  0  0  0  0  0  0  0  0  0  0  0
  1  2  2  0  0  0  0
  1 10  1  0  0  0  0
  1 11  1  0  0  0  0
  2  3  1  0  0  0  0
  2 12  1  0  0  0  0
  3  7  1  0  0  0  0
  3  4  1  0  0  0  0
  3 13  1  0  0  0  0
  4  5  1  0  0  0  0
  4 14  1  0  0  0  0
  5  6  1  0  0  0  0
  5 15  1  0  0  0  0
  6  7  1  0  0  0  0
  6 16  1  0  0  0  0
  7  8  1  0  0  0  0
  8  9  2  0  0  0  0
  8 17  1  0  0  0  0
M  END
$$$$
