
 OpenBabel03202621342D

 23 22  0  0  0  0  0  0  0  0999 V2000
    2.5981   -2.5000    0.0000 C   0  0  0  0  0  0  0  0  0  0  0  0
    2.5981   -1.5000    0.0000 S   0  0  0  0  0  0  0  0  0  0  0  0
    2.1945   -0.8719    1.5281 C   0  0  0  0  0  0  0  0  0  0  0  0
    2.9419   -0.2662    2.2790 O   0  0  0  0  0  0  0  0  0  0  0  0
    0.7433   -1.2061    1.7155 C   0  0  0  0  0  0  0  0  0  0  0  0
    0.0000   -1.0000    0.0000 C   0  0  0  0  0  0  0  0  0  0  0  0
   -1.0000   -1.0000    0.0000 C   0  0  0  0  0  0  0  0  0  0  0  0
   -0.5000   -1.8660    0.0000 C   0  0  0  0  0  0  0  0  0  0  0  0
    0.0000    0.0000    0.0000 C   0  0  0  0  0  0  0  0  0  0  0  0
    2.4237   -2.6724   -1.0795 H   0  0  0  0  0  0  0  0  0  0  0  0
    3.6753   -2.6782    0.1919 H   0  0  0  0  0  0  0  0  0  0  0  0
    2.5981   -3.5700    0.0000 H   0  0  0  0  0  0  0  0  0  0  0  0
    0.2774   -0.5774    2.4815 H   0  0  0  0  0  0  0  0  0  0  0  0
    0.8234   -2.2316    2.1165 H   0  0  0  0  0  0  0  0  0  0  0  0
   -1.4683   -0.4842    1.0338 H   0  0  0  0  0  0  0  0  0  0  0  0
   -1.4179   -0.5487   -1.0892 H   0  0  0  0  0  0  0  0  0  0  0  0
   -2.0700   -1.0000    0.0000 H   0  0  0  0  0  0  0  0  0  0  0  0
   -0.2903   -2.5579    0.9029 H   0  0  0  0  0  0  0  0  0  0  0  0
    0.0863   -2.4352   -0.8342 H   0  0  0  0  0  0  0  0  0  0  0  0
   -1.0350   -2.7926    0.0000 H   0  0  0  0  0  0  0  0  0  0  0  0
    0.7289    0.2045   -0.8395 H   0  0  0  0  0  0  0  0  0  0  0  0
    0.4068    0.4690    0.9326 H   0  0  0  0  0  0  0  0  0  0  0  0
    0.0000    1.0700    0.0000 H   0  0  0  0  0  0  0  0  0  0  0  0
  1  2  1  0  0  0  0
  1 10  1  0  0  0  0
  1 11  1  0  0  0  0
  1 12  1  0  0  0  0
  2  3  1  0  0  0  0
  3  4  2  0  0  0  0
  3  5  1  0  0  0  0
  5  6  1  0  0  0  0
  5 13  1  0  0  0  0
  5 14  1  0  0  0  0
  6  7  1  0  0  0  0
  6  8  1  0  0  0  0
  6  9  1  0  0  0  0
  7 15  1  0  0  0  0
  7 16  1  0  0  0  0
  7 17  1  0  0  0  0
  8 18  1  0  0  0  0
  8 19  1  0  0  0  0
  8 20  1  0  0  0  0
  9 21  1  0  0  0  0
  9 22  1  0  0  0  0
  9 23  1  0  0  0  0
M  END
$$$$
