
 OpenBabel03202621342D

 41 43  0  0  1  0  0  0  0  0999 V2000
    6.1376    4.4440    0.2751 O   0  0  0  0  0  0  0  0  0  0  0  0
    6.3310    3.3056   -0.1504 C   0  0  0  0  0  0  0  0  0  0  0  0
    7.7078    2.6961   -0.1428 C   0  0  0  0  0  0  0  0  0  0  0  0
    7.5714    1.1896   -0.1672 C   0  0  0  0  0  0  0  0  0  0  0  0
    6.8197    0.7490   -1.3045 O   0  0  0  0  0  0  0  0  0  0  0  0
    5.5981    1.3659   -1.3878 C   0  0  0  0  0  0  0  0  0  0  0  0
    5.2402    2.5136   -0.8031 C   0  0  0  0  0  0  0  0  0  0  0  0
    3.9384    2.9683   -0.8817 O   0  0  0  0  0  0  0  0  0  0  0  0
    3.3513    3.2114    0.4052 C   0  0  0  0  0  0  0  0  0  0  0  0
    2.9650    1.9109    1.1483 C   0  0  2  0  0  0  0  0  0  0  0  0
    4.1492    1.2737    1.6451 O   0  0  0  0  0  0  0  0  0  0  0  0
    2.1443    0.9120    0.3187 C   0  0  0  0  0  0  0  0  0  0  0  0
    0.8438    1.5138   -0.2018 C   0  0  0  0  0  0  0  0  0  0  0  0
   -0.3476    0.7424    0.0844 N   0  0  0  0  0  0  0  0  0  0  0  0
   -1.5442    1.2551    0.4941 C   0  0  0  0  0  0  0  0  0  0  0  0
   -2.4520    0.2802    0.1453 C   0  0  0  0  0  0  0  0  0  0  0  0
   -3.8828    0.4290    0.1092 C   0  0  0  0  0  0  0  0  0  0  0  0
   -4.5019    1.6652    0.0586 C   0  0  0  0  0  0  0  0  0  0  0  0
   -5.8351    1.8467   -0.0589 N   0  0  0  0  0  0  0  0  0  0  0  0
   -6.5643    0.7265   -0.1380 C   0  0  0  0  0  0  0  0  0  0  0  0
   -6.0870   -0.5300   -0.0905 N   0  0  0  0  0  0  0  0  0  0  0  0
   -4.7424   -0.6455    0.0266 C   0  0  0  0  0  0  0  0  0  0  0  0
   -1.7704   -0.8291   -0.2857 N   0  0  0  0  0  0  0  0  0  0  0  0
   -0.4763   -0.5288   -0.3289 N   0  0  0  0  0  0  0  0  0  0  0  0
    8.2401    3.0114    0.7594 H   0  0  0  0  0  0  0  0  0  0  0  0
    8.2384    3.0594   -1.0286 H   0  0  0  0  0  0  0  0  0  0  0  0
    7.0890    0.8137    0.7448 H   0  0  0  0  0  0  0  0  0  0  0  0
    8.5609    0.7235   -0.2251 H   0  0  0  0  0  0  0  0  0  0  0  0
    4.9213    0.7799   -2.0008 H   0  0  0  0  0  0  0  0  0  0  0  0
    2.4528    3.8085    0.2184 H   0  0  0  0  0  0  0  0  0  0  0  0
    3.9949    3.8317    1.0358 H   0  0  0  0  0  0  0  0  0  0  0  0
    2.3852    2.1919    2.0349 H   0  0  0  0  0  0  0  0  0  0  0  0
    4.2137    0.3790    1.2681 H   0  0  0  0  0  0  0  0  0  0  0  0
    1.9627    0.0172    0.9274 H   0  0  0  0  0  0  0  0  0  0  0  0
    2.7411    0.5587   -0.5318 H   0  0  0  0  0  0  0  0  0  0  0  0
    0.6657    2.5088    0.2181 H   0  0  0  0  0  0  0  0  0  0  0  0
    0.8829    1.6208   -1.2920 H   0  0  0  0  0  0  0  0  0  0  0  0
   -1.6457    2.2645    0.8634 H   0  0  0  0  0  0  0  0  0  0  0  0
   -3.9348    2.5901    0.0812 H   0  0  0  0  0  0  0  0  0  0  0  0
   -7.6363    0.8435   -0.2560 H   0  0  0  0  0  0  0  0  0  0  0  0
   -4.3757   -1.6689    0.0425 H   0  0  0  0  0  0  0  0  0  0  0  0
  1  2  2  0  0  0  0
  2  7  1  0  0  0  0
  2  3  1  0  0  0  0
  3  4  1  0  0  0  0
  3 25  1  0  0  0  0
  3 26  1  0  0  0  0
  4  5  1  0  0  0  0
  4 27  1  0  0  0  0
  4 28  1  0  0  0  0
  5  6  1  0  0  0  0
  6  7  2  0  0  0  0
  6 29  1  0  0  0  0
  7  8  1  0  0  0  0
  8  9  1  0  0  0  0
  9 10  1  0  0  0  0
  9 30  1  0  0  0  0
  9 31  1  0  0  0  0
 10 11  1  0  0  0  0
 10 12  1  0  0  0  0
 10 32  1  1  0  0  0
 11 33  1  0  0  0  0
 12 13  1  0  0  0  0
 12 34  1  0  0  0  0
 12 35  1  0  0  0  0
 13 14  1  0  0  0  0
 13 36  1  0  0  0  0
 13 37  1  0  0  0  0
 14 24  1  0  0  0  0
 14 15  1  0  0  0  0
 15 16  2  0  0  0  0
 15 38  1  0  0  0  0
 16 17  1  0  0  0  0
 16 23  1  0  0  0  0
 17 22  2  0  0  0  0
 17 18  1  0  0  0  0
 18 19  2  0  0  0  0
 18 39  1  0  0  0  0
 19 20  1  0  0  0  0
 20 21  2  0  0  0  0
 20 40  1  0  0  0  0
 21 22  1  0  0  0  0
 22 41  1  0  0  0  0
 23 24  2  0  0  0  0
M  END
$$$$
