
 OpenBabel03202621332D

 17 16  0  0  1  0  0  0  0  0999 V2000
    3.4641   -1.0000    0.0000 C   0  0  0  0  0  0  0  0  0  0  0  0
    3.4641    0.0000    0.0000 C   0  0  0  0  0  0  0  0  0  0  0  0
    2.1450    0.8349    0.2160 C   0  0  2  0  0  0  0  0  0  0  0  0
    2.4308    2.3054   -0.1776 C   0  0  0  0  0  0  0  0  0  0  0  0
    1.3384    3.4649    0.6249 Cl  0  0  0  0  0  0  0  0  0  0  0  0
    1.1119    0.2541   -0.6050 O   0  0  0  0  0  0  0  0  0  0  0  0
   -0.1684    0.5020   -0.2749 C   0  0  0  0  0  0  0  0  0  0  0  0
   -1.1096   -0.2063   -0.6121 O   0  0  0  0  0  0  0  0  0  0  0  0
    3.0821   -1.1864    1.0325 H   0  0  0  0  0  0  0  0  0  0  0  0
    4.5667   -1.1943   -0.0030 H   0  0  0  0  0  0  0  0  0  0  0  0
    3.4641   -2.0700    0.0000 H   0  0  0  0  0  0  0  0  0  0  0  0
    3.8097    0.3804   -0.9794 H   0  0  0  0  0  0  0  0  0  0  0  0
    4.1677    0.5052    0.6948 H   0  0  0  0  0  0  0  0  0  0  0  0
    1.8545    0.7667    1.2739 H   0  0  0  0  0  0  0  0  0  0  0  0
    3.4382    2.6050    0.1242 H   0  0  0  0  0  0  0  0  0  0  0  0
    2.3215    2.4513   -1.2562 H   0  0  0  0  0  0  0  0  0  0  0  0
   -0.3042    1.4241    0.3177 H   0  0  0  0  0  0  0  0  0  0  0  0
  1  2  1  0  0  0  0
  1  9  1  0  0  0  0
  1 10  1  0  0  0  0
  1 11  1  0  0  0  0
  2 12  1  0  0  0  0
  2 13  1  0  0  0  0
  3  2  1  0  0  0  0
  3  4  1  0  0  0  0
  3  6  1  0  0  0  0
  3 14  1  6  0  0  0
  4  5  1  0  0  0  0
  4 15  1  0  0  0  0
  4 16  1  0  0  0  0
  6  7  1  0  0  0  0
  7  8  2  0  0  0  0
  7 17  1  0  0  0  0
M  END
$$$$
