
 OpenBabel03202621322D

 28 29  0  0  1  0  0  0  0  0999 V2000
    1.4945   -0.9706    0.0000 C   0  0  0  0  0  0  0  0  0  0  0  0
    0.5000   -0.8660    0.0000 C   0  0  0  0  0  0  0  0  0  0  0  0
   -0.4593   -1.8147    0.3375 C   0  0  0  0  0  0  0  0  0  0  0  0
   -1.6630   -1.3041   -0.0563 N   0  0  0  0  0  0  0  0  0  0  0  0
   -2.9254   -1.9926   -0.3594 C   0  0  2  0  0  0  0  0  0  0  0  0
   -3.0051   -3.4435    0.0634 C   0  0  0  0  0  0  0  0  0  0  0  0
   -4.1818   -4.0873    0.0531 C   0  0  0  0  0  0  0  0  0  0  0  0
   -5.4427   -3.3545   -0.2870 C   0  0  0  0  0  0  0  0  0  0  0  0
   -5.4444   -1.9667    0.3623 C   0  0  1  0  0  0  0  0  0  0  0  0
   -6.6610   -1.1537   -0.0239 C   0  0  0  0  0  0  0  0  0  0  0  0
   -6.7481    0.0613   -0.0117 O   0  0  0  0  0  0  0  0  0  0  0  0
   -7.7455   -1.8945   -0.3218 O   0  0  0  0  0  0  0  0  0  0  0  0
   -4.1544   -1.1639    0.0798 C   0  0  0  0  0  0  0  0  0  0  0  0
   -1.5083   -0.0328   -0.4615 N   0  0  0  0  0  0  0  0  0  0  0  0
   -0.2145    0.2400   -0.4431 N   0  0  0  0  0  0  0  0  0  0  0  0
    1.6373   -1.2928   -1.0595 H   0  0  0  0  0  0  0  0  0  0  0  0
    1.8242    0.0900    0.1135 H   0  0  0  0  0  0  0  0  0  0  0  0
    2.5586   -1.0825    0.0000 H   0  0  0  0  0  0  0  0  0  0  0  0
   -0.3435   -2.8248    0.7014 H   0  0  0  0  0  0  0  0  0  0  0  0
   -2.9217   -2.0186   -1.4608 H   0  0  0  0  0  0  0  0  0  0  0  0
   -2.1070   -4.0111    0.2802 H   0  0  0  0  0  0  0  0  0  0  0  0
   -4.2389   -5.1488    0.2789 H   0  0  0  0  0  0  0  0  0  0  0  0
   -6.2958   -3.9399    0.0762 H   0  0  0  0  0  0  0  0  0  0  0  0
   -5.5466   -3.2885   -1.3776 H   0  0  0  0  0  0  0  0  0  0  0  0
   -5.5176   -2.1080    1.4504 H   0  0  0  0  0  0  0  0  0  0  0  0
   -8.4449   -1.2250   -0.4957 H   0  0  0  0  0  0  0  0  0  0  0  0
   -4.3369   -0.4096   -0.6984 H   0  0  0  0  0  0  0  0  0  0  0  0
   -3.9174   -0.5869    0.9845 H   0  0  0  0  0  0  0  0  0  0  0  0
  1  2  1  0  0  0  0
  1 16  1  0  0  0  0
  1 17  1  0  0  0  0
  1 18  1  0  0  0  0
  2 15  1  0  0  0  0
  2  3  2  0  0  0  0
  3  4  1  0  0  0  0
  3 19  1  0  0  0  0
  4 14  1  0  0  0  0
  5  4  1  0  0  0  0
  5  6  1  0  0  0  0
  5 13  1  0  0  0  0
  5 20  1  1  0  0  0
  6  7  2  0  0  0  0
  6 21  1  0  0  0  0
  7  8  1  0  0  0  0
  7 22  1  0  0  0  0
  8  9  1  0  0  0  0
  8 23  1  0  0  0  0
  8 24  1  0  0  0  0
  9 10  1  0  0  0  0
  9 13  1  0  0  0  0
  9 25  1  6  0  0  0
 10 11  2  0  0  0  0
 10 12  1  0  0  0  0
 12 26  1  0  0  0  0
 13 27  1  0  0  0  0
 13 28  1  0  0  0  0
 14 15  2  0  0  0  0
M  END
$$$$
