
 OpenBabel03202621392D

 23 23  0  0  0  0  0  0  0  0999 V2000
    0.2788   -1.7601    0.0000 C   0  0  0  0  0  0  0  0  0  0  0  0
   -0.3090   -0.9511    0.0000 C   0  0  0  0  0  0  0  0  0  0  0  0
   -0.6707   -0.5997    1.3110 C   0  0  0  0  0  0  0  0  0  0  0  0
   -1.3546    0.4750    0.8678 N   0  0  0  0  0  0  0  0  0  0  0  0
   -2.5691    0.3090    0.0000 C   0  0  0  0  0  0  0  0  0  0  0  0
   -3.5472    0.1011    0.0000 C   0  0  0  0  0  0  0  0  0  0  0  0
   -2.8781   -0.6420    0.0000 C   0  0  0  0  0  0  0  0  0  0  0  0
   -2.7770    1.2872    0.0000 C   0  0  0  0  0  0  0  0  0  0  0  0
   -0.3417    1.1698    0.2102 N   0  0  0  0  0  0  0  0  0  0  0  0
   -0.0030    0.2367   -0.6617 N   0  0  0  0  0  0  0  0  0  0  0  0
   -0.2324   -2.3302   -0.8102 H   0  0  0  0  0  0  0  0  0  0  0  0
    1.2467   -1.3633   -0.4012 H   0  0  0  0  0  0  0  0  0  0  0  0
    0.9077   -2.6257    0.0000 H   0  0  0  0  0  0  0  0  0  0  0  0
   -0.7959   -1.1156    2.2544 H   0  0  0  0  0  0  0  0  0  0  0  0
   -4.0620    0.4650   -1.0784 H   0  0  0  0  0  0  0  0  0  0  0  0
   -4.0976    0.4582    1.0627 H   0  0  0  0  0  0  0  0  0  0  0  0
   -4.5938   -0.1214    0.0000 H   0  0  0  0  0  0  0  0  0  0  0  0
   -2.3190   -1.1114   -0.9147 H   0  0  0  0  0  0  0  0  0  0  0  0
   -2.6753   -1.1735    1.0575 H   0  0  0  0  0  0  0  0  0  0  0  0
   -3.2087   -1.6596    0.0000 H   0  0  0  0  0  0  0  0  0  0  0  0
   -2.2100    1.6966   -0.8940 H   0  0  0  0  0  0  0  0  0  0  0  0
   -2.7317    1.7609    1.0672 H   0  0  0  0  0  0  0  0  0  0  0  0
   -2.9994    2.3338    0.0000 H   0  0  0  0  0  0  0  0  0  0  0  0
  1  2  1  0  0  0  0
  1 11  1  0  0  0  0
  1 12  1  0  0  0  0
  1 13  1  0  0  0  0
  2 10  1  0  0  0  0
  2  3  2  0  0  0  0
  3  4  1  0  0  0  0
  3 14  1  0  0  0  0
  4  5  1  0  0  0  0
  4  9  1  0  0  0  0
  5  6  1  0  0  0  0
  5  7  1  0  0  0  0
  5  8  1  0  0  0  0
  6 15  1  0  0  0  0
  6 16  1  0  0  0  0
  6 17  1  0  0  0  0
  7 18  1  0  0  0  0
  7 19  1  0  0  0  0
  7 20  1  0  0  0  0
  8 21  1  0  0  0  0
  8 22  1  0  0  0  0
  8 23  1  0  0  0  0
  9 10  2  0  0  0  0
M  END
$$$$
