
 OpenBabel03202621322D

 35 36  0  0  0  0  0  0  0  0999 V2000
    0.7615    2.4945    0.0000 C   0  0  0  0  0  0  0  0  0  0  0  0
   -0.1045    2.9945    0.0000 O   0  0  0  0  0  0  0  0  0  0  0  0
   -1.3546    2.4370    0.1271 C   0  0  0  0  0  0  0  0  0  0  0  0
   -2.3205    3.1792    0.3040 O   0  0  0  0  0  0  0  0  0  0  0  0
   -1.5828    0.9714   -0.0117 C   0  0  0  0  0  0  0  0  0  0  0  0
   -2.7151    0.5618   -0.6286 C   0  0  0  0  0  0  0  0  0  0  0  0
   -3.0888   -0.8449   -0.6887 C   0  0  0  0  0  0  0  0  0  0  0  0
   -4.2345   -1.3567   -0.2092 C   0  0  0  0  0  0  0  0  0  0  0  0
   -5.3742   -0.5677    0.2599 C   0  0  0  0  0  0  0  0  0  0  0  0
   -6.6349   -0.9525   -0.1921 C   0  0  0  0  0  0  0  0  0  0  0  0
   -7.7284   -0.1219    0.0136 C   0  0  0  0  0  0  0  0  0  0  0  0
   -7.5732    1.0954    0.6751 C   0  0  0  0  0  0  0  0  0  0  0  0
   -6.3346    1.4460    1.2010 C   0  0  0  0  0  0  0  0  0  0  0  0
   -5.2443    0.5963    1.0311 C   0  0  0  0  0  0  0  0  0  0  0  0
   -0.5760    0.0672    0.2934 N   0  0  0  0  0  0  0  0  0  0  0  0
    0.5608    0.3262    1.0505 C   0  0  0  0  0  0  0  0  0  0  0  0
    1.4781    0.6581    0.0000 C   0  0  0  0  0  0  0  0  0  0  0  0
    2.4727    0.7626    0.0000 C   0  0  0  0  0  0  0  0  0  0  0  0
    0.9500   -0.1148   -1.0918 N   0  0  0  0  0  0  0  0  0  0  0  0
   -0.1034   -0.7747   -0.6575 N   0  0  0  0  0  0  0  0  0  0  0  0
    1.1718    2.9163   -0.9502 H   0  0  0  0  0  0  0  0  0  0  0  0
    1.2690    3.0721    0.8107 H   0  0  0  0  0  0  0  0  0  0  0  0
    1.6881    1.9595    0.0000 H   0  0  0  0  0  0  0  0  0  0  0  0
   -3.4533    1.2834   -0.9756 H   0  0  0  0  0  0  0  0  0  0  0  0
   -2.3633   -1.5472   -1.0958 H   0  0  0  0  0  0  0  0  0  0  0  0
   -4.3801   -2.4348   -0.2586 H   0  0  0  0  0  0  0  0  0  0  0  0
   -6.7626   -1.8711   -0.7588 H   0  0  0  0  0  0  0  0  0  0  0  0
   -8.7032   -0.4034   -0.3823 H   0  0  0  0  0  0  0  0  0  0  0  0
   -8.4157    1.7742    0.7763 H   0  0  0  0  0  0  0  0  0  0  0  0
   -6.2007    2.3977    1.7101 H   0  0  0  0  0  0  0  0  0  0  0  0
   -4.2878    0.8985    1.4458 H   0  0  0  0  0  0  0  0  0  0  0  0
    0.5450    0.5273    2.1129 H   0  0  0  0  0  0  0  0  0  0  0  0
    2.7863   -0.2526    0.3576 H   0  0  0  0  0  0  0  0  0  0  0  0
    2.7319    0.8415   -1.0983 H   0  0  0  0  0  0  0  0  0  0  0  0
    3.5368    0.8744    0.0000 H   0  0  0  0  0  0  0  0  0  0  0  0
  1  2  1  0  0  0  0
  1 21  1  0  0  0  0
  1 22  1  0  0  0  0
  1 23  1  0  0  0  0
  2  3  1  0  0  0  0
  3  4  2  0  0  0  0
  3  5  1  0  0  0  0
  5  6  2  3  0  0  0
  5 15  1  0  0  0  0
  6  7  1  0  0  0  0
  6 24  1  0  0  0  0
  7  8  2  3  0  0  0
  7 25  1  0  0  0  0
  8  9  1  0  0  0  0
  8 26  1  0  0  0  0
  9 14  2  0  0  0  0
  9 10  1  0  0  0  0
 10 11  2  0  0  0  0
 10 27  1  0  0  0  0
 11 12  1  0  0  0  0
 11 28  1  0  0  0  0
 12 13  2  0  0  0  0
 12 29  1  0  0  0  0
 13 14  1  0  0  0  0
 13 30  1  0  0  0  0
 14 31  1  0  0  0  0
 15 20  1  0  0  0  0
 15 16  1  0  0  0  0
 16 17  2  0  0  0  0
 16 32  1  0  0  0  0
 17 18  1  0  0  0  0
 17 19  1  0  0  0  0
 18 33  1  0  0  0  0
 18 34  1  0  0  0  0
 18 35  1  0  0  0  0
 19 20  2  0  0  0  0
M  END
$$$$
