
 OpenBabel03202621302D

 22 21  0  0  1  0  0  0  0  0999 V2000
    2.5981   -1.5000    0.0000 C   0  0  0  0  0  0  0  0  0  0  0  0
    2.5981   -0.5000    0.0000 C   0  0  2  0  0  0  0  0  0  0  0  0
    3.6386   -0.0974    0.8975 C   0  0  0  0  0  0  0  0  0  0  0  0
    3.4641    1.0000    0.0000 C   0  0  1  0  0  0  0  0  0  0  0  0
    4.3301    1.5000    0.0000 C   0  0  0  0  0  0  0  0  0  0  0  0
    2.5510    1.9481    0.7584 O   0  0  0  0  0  0  0  0  0  0  0  0
    1.2302   -0.0902    0.6635 N   0  0  0  0  0  0  0  0  0  0  0  0
   -0.0342   -0.3805    0.2308 C   0  0  0  0  0  0  0  0  0  0  0  0
   -0.9777    0.3935    0.3612 O   0  0  0  0  0  0  0  0  0  0  0  0
    1.7499   -1.7880   -0.6838 H   0  0  0  0  0  0  0  0  0  0  0  0
    3.5174   -1.7159   -0.6216 H   0  0  0  0  0  0  0  0  0  0  0  0
    2.5981   -2.5700    0.0000 H   0  0  0  0  0  0  0  0  0  0  0  0
    2.3872   -0.2597   -1.0826 H   0  0  0  0  0  0  0  0  0  0  0  0
    3.3553    0.0506    1.9491 H   0  0  0  0  0  0  0  0  0  0  0  0
    4.5946   -0.6468    0.8347 H   0  0  0  0  0  0  0  0  0  0  0  0
    3.0714    1.1293   -1.0472 H   0  0  0  0  0  0  0  0  0  0  0  0
    4.9250    0.8818   -0.7311 H   0  0  0  0  0  0  0  0  0  0  0  0
    4.0878    2.4698   -0.5290 H   0  0  0  0  0  0  0  0  0  0  0  0
    5.2567    2.0350    0.0000 H   0  0  0  0  0  0  0  0  0  0  0  0
    2.2054    2.6111    0.1207 H   0  0  0  0  0  0  0  0  0  0  0  0
    1.2627    0.8579    1.0498 H   0  0  0  0  0  0  0  0  0  0  0  0
   -0.1549   -1.3823   -0.2075 H   0  0  0  0  0  0  0  0  0  0  0  0
  1 10  1  0  0  0  0
  1 11  1  0  0  0  0
  1 12  1  0  0  0  0
  2  1  1  0  0  0  0
  2  3  1  0  0  0  0
  2  7  1  0  0  0  0
  2 13  1  6  0  0  0
  3  4  1  0  0  0  0
  3 14  1  0  0  0  0
  3 15  1  0  0  0  0
  4  5  1  0  0  0  0
  4  6  1  0  0  0  0
  4 16  1  1  0  0  0
  5 17  1  0  0  0  0
  5 18  1  0  0  0  0
  5 19  1  0  0  0  0
  6 20  1  0  0  0  0
  7  8  1  0  0  0  0
  7 21  1  0  0  0  0
  8  9  2  0  0  0  0
  8 22  1  0  0  0  0
M  END
$$$$
