
 OpenBabel03202621312D

 18 18  0  0  1  0  0  0  0  0999 V2000
    0.2788   -1.7601    0.0000 C   0  0  0  0  0  0  0  0  0  0  0  0
   -0.3090   -0.9511    0.0000 N   0  0  0  0  0  0  0  0  0  0  0  0
   -1.7446   -1.0071    0.1376 N   0  0  0  0  0  0  0  0  0  0  0  0
   -2.1644    0.3288    0.2373 N   0  0  0  0  0  0  0  0  0  0  0  0
   -1.0745    1.2443    0.4917 C   0  0  3  0  0  0  0  0  0  0  0  0
   -1.1094    2.3421   -0.4221 N   0  0  0  0  0  0  0  0  0  0  0  0
    0.0686    0.3695    0.3091 N   0  0  0  0  0  0  0  0  0  0  0  0
    1.3821    0.9139    0.3972 C   0  0  0  0  0  0  0  0  0  0  0  0
    1.5703    2.1138    0.5051 O   0  0  0  0  0  0  0  0  0  0  0  0
   -0.3281   -2.4957   -0.5822 H   0  0  0  0  0  0  0  0  0  0  0  0
    1.0544   -1.4419   -0.7334 H   0  0  0  0  0  0  0  0  0  0  0  0
    0.9077   -2.6257    0.0000 H   0  0  0  0  0  0  0  0  0  0  0  0
   -2.2252   -1.4690   -0.6459 H   0  0  0  0  0  0  0  0  0  0  0  0
   -3.0557    0.5449   -0.2019 H   0  0  0  0  0  0  0  0  0  0  0  0
   -1.1303    1.6026    1.5230 H   0  0  0  0  0  0  0  0  0  0  0  0
   -0.2288    2.7327   -0.7563 H   0  0  0  0  0  0  0  0  0  0  0  0
   -1.8759    3.0071   -0.4336 H   0  0  0  0  0  0  0  0  0  0  0  0
    2.1970    0.1747    0.3123 H   0  0  0  0  0  0  0  0  0  0  0  0
  1  2  1  0  0  0  0
  1 10  1  0  0  0  0
  1 11  1  0  0  0  0
  1 12  1  0  0  0  0
  2  7  1  0  0  0  0
  2  3  1  0  0  0  0
  3  4  1  0  0  0  0
  3 13  1  0  0  0  0
  4  5  1  0  0  0  0
  4 14  1  0  0  0  0
  5  6  1  0  0  0  0
  5  7  1  0  0  0  0
  5 15  1  0  0  0  0
  6 16  1  0  0  0  0
  6 17  1  0  0  0  0
  7  8  1  0  0  0  0
  8  9  2  0  0  0  0
  8 18  1  0  0  0  0
M  END
$$$$
