
 OpenBabel03202621392D

 23 23  0  0  0  0  0  0  0  0999 V2000
   -0.8660   -3.5000    0.0000 C   0  0  0  0  0  0  0  0  0  0  0  0
    0.0000   -3.0000    0.0000 S   0  0  0  0  0  0  0  0  0  0  0  0
    1.3307   -2.8211    1.0400 C   0  0  0  0  0  0  0  0  0  0  0  0
    2.6892   -3.7851    1.0303 S   0  0  0  0  0  0  0  0  0  0  0  0
    1.2506   -1.6775    1.8189 N   0  0  0  0  0  0  0  0  0  0  0  0
    0.5656   -0.5688    1.2498 C   0  0  0  0  0  0  0  0  0  0  0  0
   -0.8108   -0.3983    1.4879 C   0  0  0  0  0  0  0  0  0  0  0  0
   -1.5434    0.5683    0.7861 C   0  0  0  0  0  0  0  0  0  0  0  0
   -0.8660    1.5000    0.0000 C   0  0  0  0  0  0  0  0  0  0  0  0
   -0.8660    2.5000    0.0000 C   0  0  0  0  0  0  0  0  0  0  0  0
    0.4250    1.0777   -0.4584 C   0  0  0  0  0  0  0  0  0  0  0  0
    1.1579    0.1101    0.2001 C   0  0  0  0  0  0  0  0  0  0  0  0
    2.4429   -0.0828   -0.1343 F   0  0  0  0  0  0  0  0  0  0  0  0
   -1.3596   -2.9888   -0.8479 H   0  0  0  0  0  0  0  0  0  0  0  0
   -0.5043   -4.4853   -0.3521 H   0  0  0  0  0  0  0  0  0  0  0  0
   -1.7926   -4.0350    0.0000 H   0  0  0  0  0  0  0  0  0  0  0  0
    0.9036   -1.9352    2.7481 H   0  0  0  0  0  0  0  0  0  0  0  0
   -1.3359   -1.0716    2.1546 H   0  0  0  0  0  0  0  0  0  0  0  0
   -2.5949    0.7042    1.0334 H   0  0  0  0  0  0  0  0  0  0  0  0
   -0.6683    2.7086    1.0836 H   0  0  0  0  0  0  0  0  0  0  0  0
   -1.9405    2.6838   -0.2379 H   0  0  0  0  0  0  0  0  0  0  0  0
   -0.8660    3.5700    0.0000 H   0  0  0  0  0  0  0  0  0  0  0  0
    1.0044    1.7147   -1.1428 H   0  0  0  0  0  0  0  0  0  0  0  0
  1  2  1  0  0  0  0
  1 14  1  0  0  0  0
  1 15  1  0  0  0  0
  1 16  1  0  0  0  0
  2  3  1  0  0  0  0
  3  4  2  0  0  0  0
  3  5  1  0  0  0  0
  5  6  1  0  0  0  0
  5 17  1  0  0  0  0
  6 12  2  0  0  0  0
  6  7  1  0  0  0  0
  7  8  2  0  0  0  0
  7 18  1  0  0  0  0
  8  9  1  0  0  0  0
  8 19  1  0  0  0  0
  9 10  1  0  0  0  0
  9 11  2  0  0  0  0
 10 20  1  0  0  0  0
 10 21  1  0  0  0  0
 10 22  1  0  0  0  0
 11 12  1  0  0  0  0
 11 23  1  0  0  0  0
 12 13  1  0  0  0  0
M  END
$$$$
