
 OpenBabel03202621392D

 27 28  0  0  0  0  0  0  0  0999 V2000
    2.1689   -2.7255   -0.3384 C   0  5  0  0  0  0  0  0  0  0  0  0
    1.1700   -2.1252   -0.1709 N   0  3  0  0  0  0  0  0  0  0  0  0
   -0.0234   -1.4241    0.0185 C   0  0  0  0  0  0  0  0  0  0  0  0
   -1.1520   -2.2135    0.2978 C   0  0  0  0  0  0  0  0  0  0  0  0
   -2.3732   -1.6008    0.5190 C   0  0  0  0  0  0  0  0  0  0  0  0
   -2.4665   -0.2287    0.3502 C   0  0  0  0  0  0  0  0  0  0  0  0
   -3.6182    0.5003    0.4725 O   0  0  0  0  0  0  0  0  0  0  0  0
   -4.8298    0.0730   -0.0642 C   0  0  0  0  0  0  0  0  0  0  0  0
   -4.9904   -0.9602   -0.9191 C   0  0  0  0  0  0  0  0  0  0  0  0
   -6.1958   -1.4738   -1.3419 O   0  0  0  0  0  0  0  0  0  0  0  0
   -7.2941   -1.0929   -0.4957 C   0  0  0  0  0  0  0  0  0  0  0  0
   -7.1989    0.2884    0.0602 C   0  0  0  0  0  0  0  0  0  0  0  0
   -6.0154    0.8809    0.2926 C   0  0  0  0  0  0  0  0  0  0  0  0
   -5.7669    2.0298    0.7417 O   0  5  0  0  0  0  0  0  0  0  0  0
   -1.3066    0.5321    0.1381 C   0  0  0  0  0  0  0  0  0  0  0  0
    0.0000    0.0000    0.0000 C   0  0  0  0  0  0  0  0  0  0  0  0
    0.8660    0.5000    0.0000 C   0  0  0  0  0  0  0  0  0  0  0  0
   -1.0651   -3.2940    0.3690 H   0  0  0  0  0  0  0  0  0  0  0  0
   -3.2419   -2.1887    0.7987 H   0  0  0  0  0  0  0  0  0  0  0  0
   -4.1860   -1.5193   -1.3685 H   0  0  0  0  0  0  0  0  0  0  0  0
   -7.3613   -1.8154    0.3281 H   0  0  0  0  0  0  0  0  0  0  0  0
   -8.2034   -1.1939   -1.0931 H   0  0  0  0  0  0  0  0  0  0  0  0
   -8.1144    0.8209    0.2906 H   0  0  0  0  0  0  0  0  0  0  0  0
   -1.4538    1.6184    0.1298 H   0  0  0  0  0  0  0  0  0  0  0  0
    0.9741    0.6811    1.0970 H   0  0  0  0  0  0  0  0  0  0  0  0
    0.5951    1.4345   -0.5457 H   0  0  0  0  0  0  0  0  0  0  0  0
    1.7926    1.0350    0.0000 H   0  0  0  0  0  0  0  0  0  0  0  0
  1  2  3  0  0  0  0
  2  3  1  0  0  0  0
  3 16  2  0  0  0  0
  3  4  1  0  0  0  0
  4  5  2  0  0  0  0
  4 18  1  0  0  0  0
  5  6  1  0  0  0  0
  5 19  1  0  0  0  0
  6  7  1  0  0  0  0
  6 15  2  0  0  0  0
  7  8  1  0  0  0  0
  8 13  1  0  0  0  0
  8  9  2  0  0  0  0
  9 10  1  0  0  0  0
  9 20  1  0  0  0  0
 10 11  1  0  0  0  0
 11 12  1  0  0  0  0
 11 21  1  0  0  0  0
 11 22  1  0  0  0  0
 12 13  2  0  0  0  0
 12 23  1  0  0  0  0
 13 14  1  0  0  0  0
 15 16  1  0  0  0  0
 15 24  1  0  0  0  0
 16 17  1  0  0  0  0
 17 25  1  0  0  0  0
 17 26  1  0  0  0  0
 17 27  1  0  0  0  0
M  CHG  3   1  -1   2   1  14  -1
M  END
$$$$
