
 OpenBabel03202621302D

 29 29  0  0  1  0  0  0  0  0999 V2000
   -1.7321   -3.0000    0.0000 C   0  0  0  0  0  0  0  0  0  0  0  0
   -1.7321   -2.0000    0.0000 O   0  0  0  0  0  0  0  0  0  0  0  0
   -1.1178   -1.1342   -0.7834 C   0  0  0  0  0  0  0  0  0  0  0  0
   -0.4736   -1.2903   -1.7905 O   0  0  0  0  0  0  0  0  0  0  0  0
   -1.5137    0.0323    0.0814 C   0  0  1  0  0  0  0  0  0  0  0  0
   -3.4641    0.0000    0.0000 S   0  0  0  0  0  0  0  0  0  0  0  0
   -3.4641    1.0000    0.0000 C   0  0  0  0  0  0  0  0  0  0  0  0
   -0.4904    1.1824    0.0642 C   0  0  2  0  0  0  0  0  0  0  0  0
   -0.6250    1.9982   -1.0867 O   0  0  0  0  0  0  0  0  0  0  0  0
    0.9244    0.5857    0.2449 C   0  0  0  0  0  0  0  0  0  0  0  0
    1.2015   -0.2308    1.3677 C   0  0  0  0  0  0  0  0  0  0  0  0
    2.3417   -1.0362    1.4156 C   0  0  0  0  0  0  0  0  0  0  0  0
    3.2580   -0.9936    0.3698 C   0  0  0  0  0  0  0  0  0  0  0  0
    4.6256   -2.0360    0.3903 Cl  0  0  0  0  0  0  0  0  0  0  0  0
    3.0506   -0.1369   -0.7051 C   0  0  0  0  0  0  0  0  0  0  0  0
    1.8864    0.6453   -0.7750 C   0  0  0  0  0  0  0  0  0  0  0  0
   -2.7404   -3.1793    0.4220 H   0  0  0  0  0  0  0  0  0  0  0  0
   -0.9930   -3.1845    0.8070 H   0  0  0  0  0  0  0  0  0  0  0  0
   -1.7321   -4.0700    0.0000 H   0  0  0  0  0  0  0  0  0  0  0  0
   -1.4207   -0.2895    1.1349 H   0  0  0  0  0  0  0  0  0  0  0  0
   -3.7561    1.1739   -1.0548 H   0  0  0  0  0  0  0  0  0  0  0  0
   -4.3586    1.1712    0.6287 H   0  0  0  0  0  0  0  0  0  0  0  0
   -3.4641    2.0700    0.0000 H   0  0  0  0  0  0  0  0  0  0  0  0
   -0.6760    1.8329    0.9288 H   0  0  0  0  0  0  0  0  0  0  0  0
    0.0733    2.6753   -1.0392 H   0  0  0  0  0  0  0  0  0  0  0  0
    0.4889   -0.3214    2.1867 H   0  0  0  0  0  0  0  0  0  0  0  0
    2.4875   -1.7239    2.2442 H   0  0  0  0  0  0  0  0  0  0  0  0
    3.7619   -0.1091   -1.5267 H   0  0  0  0  0  0  0  0  0  0  0  0
    1.7137    1.2250   -1.6759 H   0  0  0  0  0  0  0  0  0  0  0  0
  1  2  1  0  0  0  0
  1 17  1  0  0  0  0
  1 18  1  0  0  0  0
  1 19  1  0  0  0  0
  2  3  1  0  0  0  0
  3  4  2  0  0  0  0
  5  3  1  0  0  0  0
  5  6  1  0  0  0  0
  5  8  1  0  0  0  0
  5 20  1  6  0  0  0
  6  7  1  0  0  0  0
  7 21  1  0  0  0  0
  7 22  1  0  0  0  0
  7 23  1  0  0  0  0
  8  9  1  0  0  0  0
  8 10  1  0  0  0  0
  8 24  1  1  0  0  0
  9 25  1  0  0  0  0
 10 16  2  0  0  0  0
 10 11  1  0  0  0  0
 11 12  2  0  0  0  0
 11 26  1  0  0  0  0
 12 13  1  0  0  0  0
 12 27  1  0  0  0  0
 13 14  1  0  0  0  0
 13 15  2  0  0  0  0
 15 16  1  0  0  0  0
 15 28  1  0  0  0  0
 16 29  1  0  0  0  0
M  END
$$$$
