
 OpenBabel03202621342D

 23 23  0  0  1  0  0  0  0  0999 V2000
    2.0000    0.0000    0.0000 C   0  0  0  0  0  0  0  0  0  0  0  0
    1.0000    0.0000    0.0000 C   0  0  0  0  0  0  0  0  0  0  0  0
    1.0000   -1.0000    0.0000 C   0  0  0  0  0  0  0  0  0  0  0  0
    0.0000    0.0000    0.0000 C   0  0  0  0  0  0  0  0  0  0  0  0
   -0.2468    1.4101   -0.0054 N   0  0  0  0  0  0  0  0  0  0  0  0
    1.0000    1.0000    0.0000 C   0  0  1  0  0  0  0  0  0  0  0  0
    1.8846    2.6478   -0.4356 C   0  0  0  0  0  0  0  0  0  0  0  0
    3.5947    2.4076   -0.0111 O   0  0  0  0  0  0  0  0  0  0  0  0
    4.7060    1.5774   -0.0079 C   0  0  0  0  0  0  0  0  0  0  0  0
    5.9236    1.9431    0.0046 O   0  0  0  0  0  0  0  0  0  0  0  0
    2.8191   -0.8757   -0.0000 H   0  0  0  0  0  0  0  0  0  0  0  0
    2.7915    0.7459   -0.0041 H   0  0  0  0  0  0  0  0  0  0  0  0
    3.0700    0.0000    0.0000 H   0  0  0  0  0  0  0  0  0  0  0  0
    0.0847   -1.7797    0.0000 H   0  0  0  0  0  0  0  0  0  0  0  0
    1.8509   -1.8416    0.0000 H   0  0  0  0  0  0  0  0  0  0  0  0
    1.0000   -2.0700    0.0000 H   0  0  0  0  0  0  0  0  0  0  0  0
   -0.9236   -0.7601   -0.0004 H   0  0  0  0  0  0  0  0  0  0  0  0
   -1.1237    0.2103    0.0055 H   0  0  0  0  0  0  0  0  0  0  0  0
   -0.9229    2.1671    0.0088 H   0  0  0  0  0  0  0  0  0  0  0  0
    1.8239    1.7135    0.2363 H   0  0  0  0  0  0  0  0  0  0  0  0
    1.0879    3.4616    0.0482 H   0  0  0  0  0  0  0  0  0  0  0  0
    2.4762    3.5555    0.1195 H   0  0  0  0  0  0  0  0  0  0  0  0
    4.6709    0.6329   -0.0079 H   0  0  0  0  0  0  0  0  0  0  0  0
  1  2  1  0  0  0  0
  1 11  1  0  0  0  0
  1 12  1  0  0  0  0
  1 13  1  0  0  0  0
  2  6  1  0  0  0  0
  2  3  1  0  0  0  0
  2  4  1  0  0  0  0
  3 14  1  0  0  0  0
  3 15  1  0  0  0  0
  3 16  1  0  0  0  0
  4  5  1  0  0  0  0
  4 17  1  0  0  0  0
  4 18  1  0  0  0  0
  5  6  1  0  0  0  0
  5 19  1  0  0  0  0
  6  7  1  0  0  0  0
  6 20  1  6  0  0  0
  7  8  1  0  0  0  0
  7 21  1  0  0  0  0
  7 22  1  0  0  0  0
  8  9  1  0  0  0  0
  9 10  2  0  0  0  0
  9 23  1  0  0  0  0
M  END
$$$$
