
 OpenBabel03202621282D

 11 11  0  0  1  0  0  0  0  0999 V2000
    2.1710    2.0852    0.0000 C   0  0  0  0  0  0  0  0  0  0  0  0
    1.1724    2.0329    0.0000 S   0  0  0  0  0  0  0  0  0  0  0  0
    0.7184    1.1419    0.0000 C   0  0  0  0  0  0  0  0  0  0  0  0
   -0.2803    1.0896    0.0000 O   0  0  0  0  0  0  0  0  0  0  0  0
    1.2630    0.3032    0.0000 C   0  0  0  0  0  0  0  0  0  0  0  0
    0.8090   -0.5878    0.0000 C   0  0  1  0  0  0  0  0  0  0  0  0
    1.5919   -1.2100    0.0000 C   0  0  0  0  0  0  0  0  0  0  0  0
    0.5000   -1.5388    0.0000 C   0  0  0  0  0  0  0  0  0  0  0  0
   -0.5000   -1.5388    0.0000 C   0  0  0  0  0  0  0  0  0  0  0  0
   -0.8090   -0.5878    0.0000 C   0  0  0  0  0  0  0  0  0  0  0  0
    0.0000   -0.0000    0.0000 N   0  0  0  0  0  0  0  0  0  0  0  0
  1  2  1  0  0  0  0
  2  3  1  0  0  0  0
  3  4  2  0  0  0  0
  3  5  1  0  0  0  0
  5  6  1  0  0  0  0
  6 11  1  0  0  0  0
  6  7  1  6  0  0  0
  6  8  1  0  0  0  0
  8  9  1  0  0  0  0
  9 10  1  0  0  0  0
 10 11  1  0  0  0  0
M  END
$$$$
