
 OpenBabel03202621392D

 30 30  0  0  1  0  0  0  0  0999 V2000
    2.5981   -0.5000    0.0000 C   0  0  0  0  0  0  0  0  0  0  0  0
    1.7321    0.0000    0.0000 O   0  0  0  0  0  0  0  0  0  0  0  0
    0.7059   -1.1151   -0.1023 C   0  0  0  0  0  0  0  0  0  0  0  0
    1.0308   -2.4797   -0.2645 C   0  0  0  0  0  0  0  0  0  0  0  0
    0.0099   -3.4213   -0.2862 C   0  0  0  0  0  0  0  0  0  0  0  0
   -1.3159   -3.0067   -0.1826 C   0  0  0  0  0  0  0  0  0  0  0  0
   -1.6444   -1.6469   -0.0531 C   0  0  0  0  0  0  0  0  0  0  0  0
   -0.6473   -0.6658    0.0043 C   0  0  0  0  0  0  0  0  0  0  0  0
   -0.8731    0.8110    0.3316 C   0  0  1  0  0  0  0  0  0  0  0  0
    0.8660    1.5000    0.0000 S   0  0  0  0  0  0  0  0  0  0  0  0
    0.8660    2.5000    0.0000 C   0  0  0  0  0  0  0  0  0  0  0  0
   -1.9328    1.6995   -0.3578 C   0  0  2  0  0  0  0  0  0  0  0  0
   -1.9685    2.9692    0.3491 O   0  0  0  0  0  0  0  0  0  0  0  0
   -3.4264    1.3394   -0.4283 C   0  0  0  0  0  0  0  0  0  0  0  0
   -4.1645    1.9262   -1.2110 O   0  0  0  0  0  0  0  0  0  0  0  0
   -3.9237    0.5037    0.4891 O   0  0  0  0  0  0  0  0  0  0  0  0
    2.8076   -0.5349    1.0961 H   0  0  0  0  0  0  0  0  0  0  0  0
    3.2775    0.2677   -0.4307 H   0  0  0  0  0  0  0  0  0  0  0  0
    3.5247   -1.0350    0.0000 H   0  0  0  0  0  0  0  0  0  0  0  0
    2.0538   -2.8314   -0.3532 H   0  0  0  0  0  0  0  0  0  0  0  0
    0.2476   -4.4784   -0.3790 H   0  0  0  0  0  0  0  0  0  0  0  0
   -2.1070   -3.7550   -0.1924 H   0  0  0  0  0  0  0  0  0  0  0  0
   -2.6999   -1.4233    0.0173 H   0  0  0  0  0  0  0  0  0  0  0  0
   -1.0076    0.8717    1.4213 H   0  0  0  0  0  0  0  0  0  0  0  0
    1.9425    2.6768   -0.1893 H   0  0  0  0  0  0  0  0  0  0  0  0
    0.6967    2.6865    1.0802 H   0  0  0  0  0  0  0  0  0  0  0  0
    0.8660    3.5700    0.0000 H   0  0  0  0  0  0  0  0  0  0  0  0
   -1.6243    1.8869   -1.3927 H   0  0  0  0  0  0  0  0  0  0  0  0
   -2.5720    3.5538   -0.1504 H   0  0  0  0  0  0  0  0  0  0  0  0
   -3.3176    0.2147    1.1925 H   0  0  0  0  0  0  0  0  0  0  0  0
  1  2  1  0  0  0  0
  1 17  1  0  0  0  0
  1 18  1  0  0  0  0
  1 19  1  0  0  0  0
  2  3  1  0  0  0  0
  3  8  2  0  0  0  0
  3  4  1  0  0  0  0
  4  5  2  0  0  0  0
  4 20  1  0  0  0  0
  5  6  1  0  0  0  0
  5 21  1  0  0  0  0
  6  7  2  0  0  0  0
  6 22  1  0  0  0  0
  7  8  1  0  0  0  0
  7 23  1  0  0  0  0
  8  9  1  0  0  0  0
  9 10  1  0  0  0  0
  9 12  1  0  0  0  0
  9 24  1  1  0  0  0
 10 11  1  0  0  0  0
 11 25  1  0  0  0  0
 11 26  1  0  0  0  0
 11 27  1  0  0  0  0
 12 13  1  0  0  0  0
 12 14  1  0  0  0  0
 12 28  1  6  0  0  0
 13 29  1  0  0  0  0
 14 15  2  0  0  0  0
 14 16  1  0  0  0  0
 16 30  1  0  0  0  0
M  END
$$$$
