
 OpenBabel03202621342D

 22 23  0  0  1  0  0  0  0  0999 V2000
    0.4612   -1.7213    0.0000 C   0  0  0  0  0  0  0  0  0  0  0  0
   -0.2079   -0.9781    0.0000 C   0  0  0  0  0  0  0  0  0  0  0  0
   -1.5898   -1.0854   -0.1434 C   0  0  0  0  0  0  0  0  0  0  0  0
   -2.1054    0.1516    0.1112 N   0  0  0  0  0  0  0  0  0  0  0  0
   -3.4788    0.5145    0.4042 C   0  0  2  0  0  0  0  0  0  0  0  0
   -4.5282   -0.4418   -0.1720 C   0  0  0  0  0  0  0  0  0  0  0  0
   -5.8860    0.1694    0.1307 C   0  0  0  0  0  0  0  0  0  0  0  0
   -5.6700    1.9443   -0.1296 S   0  0  0  0  0  0  0  0  0  0  0  0
   -3.8502    1.9004   -0.1230 C   0  0  0  0  0  0  0  0  0  0  0  0
   -1.1203    1.0356    0.2990 N   0  0  0  0  0  0  0  0  0  0  0  0
    0.0266    0.3739    0.2265 N   0  0  0  0  0  0  0  0  0  0  0  0
    0.3081   -2.0987    1.0408 H   0  0  0  0  0  0  0  0  0  0  0  0
    1.4246   -1.1567   -0.0211 H   0  0  0  0  0  0  0  0  0  0  0  0
    1.1771   -2.5165    0.0000 H   0  0  0  0  0  0  0  0  0  0  0  0
   -2.2157   -1.9516   -0.2985 H   0  0  0  0  0  0  0  0  0  0  0  0
   -3.5504    0.5081    1.5008 H   0  0  0  0  0  0  0  0  0  0  0  0
   -4.4583   -1.4414    0.2711 H   0  0  0  0  0  0  0  0  0  0  0  0
   -4.3946   -0.5606   -1.2557 H   0  0  0  0  0  0  0  0  0  0  0  0
   -6.6680   -0.2369   -0.5189 H   0  0  0  0  0  0  0  0  0  0  0  0
   -6.1718   -0.0071    1.1737 H   0  0  0  0  0  0  0  0  0  0  0  0
   -3.4564    2.7005    0.5125 H   0  0  0  0  0  0  0  0  0  0  0  0
   -3.4940    2.0613   -1.1459 H   0  0  0  0  0  0  0  0  0  0  0  0
  1  2  1  0  0  0  0
  1 12  1  0  0  0  0
  1 13  1  0  0  0  0
  1 14  1  0  0  0  0
  2 11  1  0  0  0  0
  2  3  2  0  0  0  0
  3  4  1  0  0  0  0
  3 15  1  0  0  0  0
  4 10  1  0  0  0  0
  5  4  1  0  0  0  0
  5  6  1  0  0  0  0
  5  9  1  0  0  0  0
  5 16  1  1  0  0  0
  6  7  1  0  0  0  0
  6 17  1  0  0  0  0
  6 18  1  0  0  0  0
  7  8  1  0  0  0  0
  7 19  1  0  0  0  0
  7 20  1  0  0  0  0
  8  9  1  0  0  0  0
  9 21  1  0  0  0  0
  9 22  1  0  0  0  0
 10 11  2  0  0  0  0
M  END
$$$$
