
 OpenBabel03202621282D

 17 19  0  0  1  0  0  0  0  0999 V2000
    4.9602   -0.7238    0.0000 C   0  0  0  0  0  0  0  0  0  0  0  0
    4.1318   -0.2412    0.0000 C   0  0  0  0  0  0  0  0  0  0  0  0
    3.2545   -0.6276    0.0000 C   0  0  0  0  0  0  0  0  0  0  0  0
    2.6158    0.0873    0.0000 N   0  0  0  0  0  0  0  0  0  0  0  0
    1.6620   -0.0091    0.0000 C   0  0  0  0  0  0  0  0  0  0  0  0
    0.8336    0.4735    0.0000 C   0  0  1  0  0  0  0  0  0  0  0  0
    0.8344    1.4432    0.0000 O   0  0  0  0  0  0  0  0  0  0  0  0
    0.0137    1.9171    0.0000 C   0  0  0  0  0  0  0  0  0  0  0  0
   -0.8200    1.4436    0.0000 C   0  0  1  0  0  0  0  0  0  0  0  0
   -1.6538    0.9699    0.0000 O   0  0  0  0  0  0  0  0  0  0  0  0
   -1.6546    0.0002    0.0000 C   0  0  0  0  0  0  0  0  0  0  0  0
   -2.5209   -0.4994    0.0000 C   0  0  0  0  0  0  0  0  0  0  0  0
   -2.5207    0.5002    0.0000 C   0  0  0  0  0  0  0  0  0  0  0  0
   -0.8339   -0.4736    0.0000 O   0  0  0  0  0  0  0  0  0  0  0  0
    0.0000   -0.0000    0.0000 C   0  0  1  0  0  0  0  0  0  0  0  0
    3.0984    0.9157    0.0000 N   0  0  0  0  0  0  0  0  0  0  0  0
    4.0354    0.7127    0.0000 N   0  0  0  0  0  0  0  0  0  0  0  0
  1  2  1  0  0  0  0
  2 17  1  0  0  0  0
  2  3  2  0  0  0  0
  3  4  1  0  0  0  0
  4  5  1  0  0  0  0
  4 16  1  0  0  0  0
  6  5  1  6  0  0  0
  6  7  1  0  0  0  0
  6 15  1  0  0  0  0
  7  8  1  0  0  0  0
  9  8  1  6  0  0  0
  9 10  1  0  0  0  0
  9 15  1  0  0  0  0
 10 11  1  0  0  0  0
 11 12  1  0  0  0  0
 11 13  1  0  0  0  0
 11 14  1  0  0  0  0
 15 14  1  6  0  0  0
 16 17  2  0  0  0  0
M  END
$$$$
