
 OpenBabel03202621312D

 18 18  0  0  0  0  0  0  0  0999 V2000
    2.1162    3.3386    0.0000 C   0  0  0  0  0  0  0  0  0  0  0  0
    0.3939    2.8568   -0.0000 S   0  0  0  0  0  0  0  0  0  0  0  0
    0.3946    1.0681    0.0000 C   0  0  0  0  0  0  0  0  0  0  0  0
    1.5961    0.3735    0.0000 C   0  0  0  0  0  0  0  0  0  0  0  0
    1.7321   -1.0000    0.0000 C   0  0  0  0  0  0  0  0  0  0  0  0
    2.5981   -1.5000    0.0000 C   0  0  0  0  0  0  0  0  0  0  0  0
    0.4504   -1.6230    0.0000 C   0  0  0  0  0  0  0  0  0  0  0  0
   -0.7277   -0.9150   -0.0000 C   0  0  0  0  0  0  0  0  0  0  0  0
   -1.8714   -1.6139   -0.0000 F   0  0  0  0  0  0  0  0  0  0  0  0
   -0.7926    0.4289    0.0000 N   0  0  0  0  0  0  0  0  0  0  0  0
    2.8580    2.5608   -0.0000 H   0  0  0  0  0  0  0  0  0  0  0  0
    1.7931    4.3740   -0.0000 H   0  0  0  0  0  0  0  0  0  0  0  0
    3.0170    4.0018   -0.0000 H   0  0  0  0  0  0  0  0  0  0  0  0
    2.5284    0.9011   -0.0000 H   0  0  0  0  0  0  0  0  0  0  0  0
    2.4092   -2.5872   -0.0000 H   0  0  0  0  0  0  0  0  0  0  0  0
    3.4481   -0.7970   -0.0000 H   0  0  0  0  0  0  0  0  0  0  0  0
    3.5247   -2.0350    0.0000 H   0  0  0  0  0  0  0  0  0  0  0  0
    0.3691   -2.7192    0.0000 H   0  0  0  0  0  0  0  0  0  0  0  0
  1  2  1  0  0  0  0
  1 11  1  0  0  0  0
  1 12  1  0  0  0  0
  1 13  1  0  0  0  0
  2  3  1  0  0  0  0
  3 10  2  0  0  0  0
  3  4  1  0  0  0  0
  4  5  2  0  0  0  0
  4 14  1  0  0  0  0
  5  6  1  0  0  0  0
  5  7  1  0  0  0  0
  6 15  1  0  0  0  0
  6 16  1  0  0  0  0
  6 17  1  0  0  0  0
  7  8  2  0  0  0  0
  7 18  1  0  0  0  0
  8  9  1  0  0  0  0
  8 10  1  0  0  0  0
M  END
$$$$
