
 OpenBabel03202621392D

 26 27  0  0  0  0  0  0  0  0999 V2000
   -1.5878   -0.8090    0.0000 C   0  0  0  0  0  0  0  0  0  0  0  0
   -1.0000    0.0000    0.0000 C   0  0  0  0  0  0  0  0  0  0  0  0
   -1.0734    1.1280    0.8102 C   0  0  0  0  0  0  0  0  0  0  0  0
   -0.3557    2.0910    0.1618 N   0  0  0  0  0  0  0  0  0  0  0  0
   -0.3262    3.5148    0.4077 C   0  0  0  0  0  0  0  0  0  0  0  0
   -1.4380    4.3236   -0.2344 C   0  0  0  0  0  0  0  0  0  0  0  0
   -1.2679    5.5028   -0.5471 O   0  0  0  0  0  0  0  0  0  0  0  0
   -2.8305    3.8103   -0.2951 C   0  0  0  0  0  0  0  0  0  0  0  0
   -3.1841    2.7073   -1.0809 C   0  0  0  0  0  0  0  0  0  0  0  0
   -4.5089    2.2576   -1.0978 C   0  0  0  0  0  0  0  0  0  0  0  0
   -5.4843    2.9333   -0.3663 C   0  0  0  0  0  0  0  0  0  0  0  0
   -5.1324    4.0594    0.3703 C   0  0  0  0  0  0  0  0  0  0  0  0
   -6.0763    4.7217    1.0512 F   0  0  0  0  0  0  0  0  0  0  0  0
   -3.8166    4.5075    0.4116 C   0  0  0  0  0  0  0  0  0  0  0  0
    0.3269    1.5659   -0.8603 N   0  0  0  0  0  0  0  0  0  0  0  0
   -0.0488    0.3020   -0.9721 N   0  0  0  0  0  0  0  0  0  0  0  0
   -2.0528   -0.7102   -1.0102 H   0  0  0  0  0  0  0  0  0  0  0  0
   -0.8071   -1.6056   -0.0006 H   0  0  0  0  0  0  0  0  0  0  0  0
   -2.2167   -1.6746    0.0000 H   0  0  0  0  0  0  0  0  0  0  0  0
   -1.6930    1.3585    1.6664 H   0  0  0  0  0  0  0  0  0  0  0  0
    0.6307    3.8858    0.0225 H   0  0  0  0  0  0  0  0  0  0  0  0
   -0.3485    3.6712    1.4906 H   0  0  0  0  0  0  0  0  0  0  0  0
   -2.4461    2.1929   -1.6930 H   0  0  0  0  0  0  0  0  0  0  0  0
   -4.7814    1.3882   -1.6927 H   0  0  0  0  0  0  0  0  0  0  0  0
   -6.5193    2.6021   -0.3794 H   0  0  0  0  0  0  0  0  0  0  0  0
   -3.5777    5.4017    0.9803 H   0  0  0  0  0  0  0  0  0  0  0  0
  1  2  1  0  0  0  0
  1 17  1  0  0  0  0
  1 18  1  0  0  0  0
  1 19  1  0  0  0  0
  2 16  1  0  0  0  0
  2  3  2  0  0  0  0
  3  4  1  0  0  0  0
  3 20  1  0  0  0  0
  4  5  1  0  0  0  0
  4 15  1  0  0  0  0
  5  6  1  0  0  0  0
  5 21  1  0  0  0  0
  5 22  1  0  0  0  0
  6  7  2  0  0  0  0
  6  8  1  0  0  0  0
  8 14  2  0  0  0  0
  8  9  1  0  0  0  0
  9 10  2  0  0  0  0
  9 23  1  0  0  0  0
 10 11  1  0  0  0  0
 10 24  1  0  0  0  0
 11 12  2  0  0  0  0
 11 25  1  0  0  0  0
 12 13  1  0  0  0  0
 12 14  1  0  0  0  0
 14 26  1  0  0  0  0
 15 16  2  0  0  0  0
M  END
$$$$
