
 OpenBabel03202621392D

 42 42  0  0  1  0  0  0  0  0999 V2000
    5.1962    0.0000    0.0000 C   0  0  0  0  0  0  0  0  0  0  0  0
    5.1962    1.0000    0.0000 S   0  0  0  0  0  0  0  0  0  0  0  0
    4.2325    1.3201    1.3540 C   0  0  0  0  0  0  0  0  0  0  0  0
    3.4641    1.0000    0.0000 C   0  0  1  0  0  0  0  0  0  0  0  0
    1.9643    1.2661    0.7254 O   0  0  0  0  0  0  0  0  0  0  0  0
    3.4641    0.0000    0.0000 C   0  0  0  0  0  0  0  0  0  0  0  0
    3.0167    0.2111   -1.6366 O   0  0  0  0  0  0  0  0  0  0  0  0
    1.9436    1.1369   -1.9620 C   0  0  0  0  0  0  0  0  0  0  0  0
    0.7109    0.3275   -1.9732 C   0  0  0  0  0  0  0  0  0  0  0  0
    0.8806   -1.0612   -2.1980 C   0  0  0  0  0  0  0  0  0  0  0  0
   -0.1833   -1.9123   -2.2112 C   0  0  0  0  0  0  0  0  0  0  0  0
   -1.2842   -1.3642   -1.5974 C   0  0  0  0  0  0  0  0  0  0  0  0
   -1.7321   -2.0000    0.0000 C   0  0  0  0  0  0  0  0  0  0  0  0
   -2.2321   -2.8660    0.0000 C   0  0  0  0  0  0  0  0  0  0  0  0
   -1.2321   -2.8660    0.0000 C   0  0  0  0  0  0  0  0  0  0  0  0
   -2.5981   -1.5000    0.0000 C   0  0  0  0  0  0  0  0  0  0  0  0
   -1.5920    0.0366   -1.7793 C   0  0  0  0  0  0  0  0  0  0  0  0
   -0.5191    0.9026   -1.8448 C   0  0  0  0  0  0  0  0  0  0  0  0
    6.0253   -0.1901    0.7271 H   0  0  0  0  0  0  0  0  0  0  0  0
    5.6953   -0.1670   -0.9885 H   0  0  0  0  0  0  0  0  0  0  0  0
    5.1962   -1.0700    0.0000 H   0  0  0  0  0  0  0  0  0  0  0  0
    4.4912    0.6445    2.1767 H   0  0  0  0  0  0  0  0  0  0  0  0
    4.1823    2.3676    1.6904 H   0  0  0  0  0  0  0  0  0  0  0  0
    3.4641    2.0700    0.0000 H   0  0  0  0  0  0  0  0  0  0  0  0
    1.9540    2.1950    1.0212 H   0  0  0  0  0  0  0  0  0  0  0  0
    3.5878   -1.0512   -0.3931 H   0  0  0  0  0  0  0  0  0  0  0  0
    2.5885   -0.4947    0.4928 H   0  0  0  0  0  0  0  0  0  0  0  0
    1.8547    2.0435   -1.3447 H   0  0  0  0  0  0  0  0  0  0  0  0
    2.0920    1.4927   -2.9767 H   0  0  0  0  0  0  0  0  0  0  0  0
    1.8574   -1.5173   -2.1531 H   0  0  0  0  0  0  0  0  0  0  0  0
    0.0043   -2.9736   -2.2317 H   0  0  0  0  0  0  0  0  0  0  0  0
   -2.9009   -2.9934    1.0504 H   0  0  0  0  0  0  0  0  0  0  0  0
   -2.7884   -3.1304   -1.0864 H   0  0  0  0  0  0  0  0  0  0  0  0
   -2.7671   -3.7926    0.0000 H   0  0  0  0  0  0  0  0  0  0  0  0
   -0.8994   -2.9590    1.2106 H   0  0  0  0  0  0  0  0  0  0  0  0
   -0.1402   -2.4942   -0.1076 H   0  0  0  0  0  0  0  0  0  0  0  0
   -0.6971   -3.7926    0.0000 H   0  0  0  0  0  0  0  0  0  0  0  0
   -2.2992   -0.5427    0.5139 H   0  0  0  0  0  0  0  0  0  0  0  0
   -3.1764   -1.4556   -1.0171 H   0  0  0  0  0  0  0  0  0  0  0  0
   -3.5247   -0.9650    0.0000 H   0  0  0  0  0  0  0  0  0  0  0  0
   -2.5864    0.4392   -1.5965 H   0  0  0  0  0  0  0  0  0  0  0  0
   -0.7051    1.9598   -1.6522 H   0  0  0  0  0  0  0  0  0  0  0  0
  1  2  1  0  0  0  0
  1 19  1  0  0  0  0
  1 20  1  0  0  0  0
  1 21  1  0  0  0  0
  2  3  1  0  0  0  0
  3  4  1  0  0  0  0
  3 22  1  0  0  0  0
  3 23  1  0  0  0  0
  4  5  1  0  0  0  0
  4  6  1  0  0  0  0
  4 24  1  1  0  0  0
  5 25  1  0  0  0  0
  6  7  1  0  0  0  0
  6 26  1  0  0  0  0
  6 27  1  0  0  0  0
  7  8  1  0  0  0  0
  8  9  1  0  0  0  0
  8 28  1  0  0  0  0
  8 29  1  0  0  0  0
  9 18  2  0  0  0  0
  9 10  1  0  0  0  0
 10 11  2  0  0  0  0
 10 30  1  0  0  0  0
 11 12  1  0  0  0  0
 11 31  1  0  0  0  0
 12 13  1  0  0  0  0
 12 17  2  0  0  0  0
 13 14  1  0  0  0  0
 13 15  1  0  0  0  0
 13 16  1  0  0  0  0
 14 32  1  0  0  0  0
 14 33  1  0  0  0  0
 14 34  1  0  0  0  0
 15 35  1  0  0  0  0
 15 36  1  0  0  0  0
 15 37  1  0  0  0  0
 16 38  1  0  0  0  0
 16 39  1  0  0  0  0
 16 40  1  0  0  0  0
 17 18  1  0  0  0  0
 17 41  1  0  0  0  0
 18 42  1  0  0  0  0
M  END
$$$$
