
 OpenBabel03202621332D

 17 17  0  0  0  0  0  0  0  0999 V2000
    0.2788   -1.7601    0.0000 C   0  0  0  0  0  0  0  0  0  0  0  0
   -0.3090   -0.9511    0.0000 N   0  0  0  0  0  0  0  0  0  0  0  0
   -1.7069   -0.9412    0.0000 N   0  0  0  0  0  0  0  0  0  0  0  0
   -2.1642    0.3523    0.0000 C   0  0  0  0  0  0  0  0  0  0  0  0
   -3.3066    0.7450    0.0000 O   0  0  0  0  0  0  0  0  0  0  0  0
   -0.9683    1.2198    0.0000 C   0  0  0  0  0  0  0  0  0  0  0  0
    0.1001    0.3996    0.0000 C   0  0  0  0  0  0  0  0  0  0  0  0
    1.3646    0.9638    0.0000 N   0  0  0  0  0  0  0  0  0  0  0  0
    2.6363    0.4474    0.0000 C   0  0  0  0  0  0  0  0  0  0  0  0
    3.6285    1.1742   -0.0000 O   0  0  0  0  0  0  0  0  0  0  0  0
   -0.3607   -2.6579   -0.0000 H   0  0  0  0  0  0  0  0  0  0  0  0
    1.3139   -1.5012   -0.0000 H   0  0  0  0  0  0  0  0  0  0  0  0
    0.9077   -2.6257    0.0000 H   0  0  0  0  0  0  0  0  0  0  0  0
   -2.2934   -1.7659   -0.0000 H   0  0  0  0  0  0  0  0  0  0  0  0
   -1.0114    2.2928    0.0000 H   0  0  0  0  0  0  0  0  0  0  0  0
    1.4065    1.9736    0.0000 H   0  0  0  0  0  0  0  0  0  0  0  0
    2.7805   -0.6326    0.0000 H   0  0  0  0  0  0  0  0  0  0  0  0
  1  2  1  0  0  0  0
  1 11  1  0  0  0  0
  1 12  1  0  0  0  0
  1 13  1  0  0  0  0
  2  7  1  0  0  0  0
  2  3  1  0  0  0  0
  3  4  1  0  0  0  0
  3 14  1  0  0  0  0
  4  5  2  0  0  0  0
  4  6  1  0  0  0  0
  6  7  2  0  0  0  0
  6 15  1  0  0  0  0
  7  8  1  0  0  0  0
  8  9  1  0  0  0  0
  8 16  1  0  0  0  0
  9 10  2  0  0  0  0
  9 17  1  0  0  0  0
M  END
$$$$
