
 OpenBabel03202621282D

  9 10  0  0  1  0  0  0  0  0999 V2000
    0.0149    0.0502    0.0000 C   0  0  0  0  0  0  0  0  0  0  0  0
   -0.9511    0.3090    0.0000 C   0  0  1  0  0  0  0  0  0  0  0  0
   -1.8171    0.8090    0.0000 C   0  0  0  0  0  0  0  0  0  0  0  0
   -0.9511    1.3090    0.0000 C   0  0  2  0  0  0  0  0  0  0  0  0
   -0.0000    1.6180    0.0000 C   0  0  0  0  0  0  0  0  0  0  0  0
    0.5878    0.8090    0.0000 N   0  0  0  0  0  0  0  0  0  0  0  0
    1.5878    0.8090    0.0000 C   0  0  0  0  0  0  0  0  0  0  0  0
    2.0878   -0.0570    0.0000 O   0  0  0  0  0  0  0  0  0  0  0  0
   -0.0000   -0.0000    0.0000 C   0  0  0  0  0  0  0  0  0  0  0  0
  2  1  1  1  0  0  0
  2  4  1  0  0  0  0
  2  9  1  0  0  0  0
  2  3  1  0  0  0  0
  4  3  1  6  0  0  0
  4  5  1  0  0  0  0
  5  6  1  0  0  0  0
  6  7  1  0  0  0  0
  6  9  1  0  0  0  0
  7  8  2  0  0  0  0
M  END
$$$$
