
 OpenBabel03202621352D

 27 28  0  0  0  0  0  0  0  0999 V2000
   -0.1710   -3.7579   -0.6652 O   0  0  0  0  0  0  0  0  0  0  0  0
    0.7526   -3.1454   -0.1352 C   0  0  0  0  0  0  0  0  0  0  0  0
    2.1178   -3.7789    0.0280 C   0  0  0  0  0  0  0  0  0  0  0  0
    3.2601   -2.8229   -0.0528 C   0  0  0  0  0  0  0  0  0  0  0  0
    3.2186   -1.5146   -0.1800 N   0  0  0  0  0  0  0  0  0  0  0  0
    4.5119   -1.0776   -0.1139 C   0  0  0  0  0  0  0  0  0  0  0  0
    5.3780   -2.1396   -0.0222 C   0  0  0  0  0  0  0  0  0  0  0  0
    6.7027   -2.1919    0.0390 O   0  0  0  0  0  0  0  0  0  0  0  0
    4.5698   -3.2482    0.0105 N   0  0  0  0  0  0  0  0  0  0  0  0
    0.6630   -1.9112    0.4372 O   0  0  0  0  0  0  0  0  0  0  0  0
   -0.3962   -1.0080    0.1995 C   0  0  0  0  0  0  0  0  0  0  0  0
   -1.6167   -1.2999   -0.2801 C   0  0  0  0  0  0  0  0  0  0  0  0
   -2.6366   -0.4190   -0.5369 O   0  0  0  0  0  0  0  0  0  0  0  0
   -2.4891    0.8625    0.0746 C   0  0  0  0  0  0  0  0  0  0  0  0
   -1.0981    1.4344   -0.0833 C   0  0  0  0  0  0  0  0  0  0  0  0
   -0.1035    0.4367    0.4376 C   0  0  0  0  0  0  0  0  0  0  0  0
    0.9404    0.8034    0.9756 O   0  0  0  0  0  0  0  0  0  0  0  0
    2.1355   -4.3155    0.9818 H   0  0  0  0  0  0  0  0  0  0  0  0
    2.2326   -4.5111   -0.7812 H   0  0  0  0  0  0  0  0  0  0  0  0
    4.7544   -0.0239   -0.1397 H   0  0  0  0  0  0  0  0  0  0  0  0
    7.0056   -3.1109    0.0525 H   0  0  0  0  0  0  0  0  0  0  0  0
    4.8699   -4.2079    0.0871 H   0  0  0  0  0  0  0  0  0  0  0  0
   -1.9439   -2.2952   -0.5500 H   0  0  0  0  0  0  0  0  0  0  0  0
   -2.7597    0.7716    1.1320 H   0  0  0  0  0  0  0  0  0  0  0  0
   -3.2179    1.5334   -0.3921 H   0  0  0  0  0  0  0  0  0  0  0  0
   -1.0133    2.3633    0.4904 H   0  0  0  0  0  0  0  0  0  0  0  0
   -0.8632    1.6376   -1.1325 H   0  0  0  0  0  0  0  0  0  0  0  0
  1  2  2  0  0  0  0
  2  3  1  0  0  0  0
  2 10  1  0  0  0  0
  3  4  1  0  0  0  0
  3 18  1  0  0  0  0
  3 19  1  0  0  0  0
  4  9  1  0  0  0  0
  4  5  2  0  0  0  0
  5  6  1  0  0  0  0
  6  7  2  0  0  0  0
  6 20  1  0  0  0  0
  7  8  1  0  0  0  0
  7  9  1  0  0  0  0
  8 21  1  0  0  0  0
  9 22  1  0  0  0  0
 10 11  1  0  0  0  0
 11 16  1  0  0  0  0
 11 12  2  0  0  0  0
 12 13  1  0  0  0  0
 12 23  1  0  0  0  0
 13 14  1  0  0  0  0
 14 15  1  0  0  0  0
 14 24  1  0  0  0  0
 14 25  1  0  0  0  0
 15 16  1  0  0  0  0
 15 26  1  0  0  0  0
 15 27  1  0  0  0  0
 16 17  2  0  0  0  0
M  END
$$$$
