
 OpenBabel03202621372D

 21 22  0  0  0  0  0  0  0  0999 V2000
    1.4945   -0.9706    0.0000 C   0  0  0  0  0  0  0  0  0  0  0  0
    0.5000   -0.8660    0.0000 C   0  0  0  0  0  0  0  0  0  0  0  0
   -0.4512   -1.8628    0.0000 C   0  0  0  0  0  0  0  0  0  0  0  0
   -1.6774   -1.2724    0.0000 N   0  0  0  0  0  0  0  0  0  0  0  0
   -2.9170   -1.9490    0.0000 C   0  0  0  0  0  0  0  0  0  0  0  0
   -2.8897   -3.3645    0.0000 C   0  0  0  0  0  0  0  0  0  0  0  0
   -4.0581   -4.1099    0.0000 C   0  0  0  0  0  0  0  0  0  0  0  0
   -5.2762   -3.4515    0.0000 C   0  0  0  0  0  0  0  0  0  0  0  0
   -5.3196   -2.0573   -0.0000 C   0  0  0  0  0  0  0  0  0  0  0  0
   -4.1487   -1.2883    0.0000 C   0  0  0  0  0  0  0  0  0  0  0  0
   -4.3821    0.4238    0.0000 Cl  0  0  0  0  0  0  0  0  0  0  0  0
   -1.5029    0.0606   -0.0000 N   0  0  0  0  0  0  0  0  0  0  0  0
   -0.2018    0.3160   -0.0000 N   0  0  0  0  0  0  0  0  0  0  0  0
    1.7500   -2.0431   -0.0000 H   0  0  0  0  0  0  0  0  0  0  0  0
    1.9383    0.0371    0.0000 H   0  0  0  0  0  0  0  0  0  0  0  0
    2.5586   -1.0825    0.0000 H   0  0  0  0  0  0  0  0  0  0  0  0
   -0.2967   -2.9312    0.0000 H   0  0  0  0  0  0  0  0  0  0  0  0
   -1.9685   -3.9396   -0.0000 H   0  0  0  0  0  0  0  0  0  0  0  0
   -4.0048   -5.1963   -0.0000 H   0  0  0  0  0  0  0  0  0  0  0  0
   -6.2005   -4.0217    0.0000 H   0  0  0  0  0  0  0  0  0  0  0  0
   -6.2882   -1.5617   -0.0000 H   0  0  0  0  0  0  0  0  0  0  0  0
  1  2  1  0  0  0  0
  1 14  1  0  0  0  0
  1 15  1  0  0  0  0
  1 16  1  0  0  0  0
  2 13  1  0  0  0  0
  2  3  2  0  0  0  0
  3  4  1  0  0  0  0
  3 17  1  0  0  0  0
  4  5  1  0  0  0  0
  4 12  1  0  0  0  0
  5 10  2  0  0  0  0
  5  6  1  0  0  0  0
  6  7  2  0  0  0  0
  6 18  1  0  0  0  0
  7  8  1  0  0  0  0
  7 19  1  0  0  0  0
  8  9  2  0  0  0  0
  8 20  1  0  0  0  0
  9 10  1  0  0  0  0
  9 21  1  0  0  0  0
 10 11  1  0  0  0  0
 12 13  2  0  0  0  0
M  END
$$$$
