
 OpenBabel03202621372D

 31 31  0  0  1  0  0  0  0  0999 V2000
    0.8660    4.5000    0.0000 C   0  0  0  0  0  0  0  0  0  0  0  0
    0.8660    3.5000    0.0000 C   0  0  2  0  0  0  0  0  0  0  0  0
   -0.4097    2.7300    0.4998 C   0  0  0  0  0  0  0  0  0  0  0  0
   -0.4433    1.3945   -0.2124 C   0  0  0  0  0  0  0  0  0  0  0  0
   -0.8389    1.2581   -1.3613 O   0  0  0  0  0  0  0  0  0  0  0  0
    0.2841    0.5413    0.5771 O   0  0  0  0  0  0  0  0  0  0  0  0
    0.5313   -0.7734    0.1584 C   0  0  0  0  0  0  0  0  0  0  0  0
    1.7861   -1.1218   -0.1518 C   0  0  0  0  0  0  0  0  0  0  0  0
    2.1936   -2.5536   -0.2376 C   0  0  0  0  0  0  0  0  0  0  0  0
    1.1516   -3.5278   -0.1364 O   0  0  0  0  0  0  0  0  0  0  0  0
   -0.0891   -3.0739    0.2224 C   0  0  0  0  0  0  0  0  0  0  0  0
   -0.4795   -1.7993    0.4030 C   0  0  0  0  0  0  0  0  0  0  0  0
   -1.6011   -1.3397    0.7516 O   0  5  0  0  0  0  0  0  0  0  0  0
    2.0572    2.8818    0.6669 N   0  0  0  0  0  0  0  0  0  0  0  0
    3.3617    3.1107    0.3689 C   0  0  0  0  0  0  0  0  0  0  0  0
    4.2731    2.2024    0.3972 N   0  0  0  0  0  0  0  0  0  0  0  0
    3.7471    4.3701    0.0977 N   0  0  0  0  0  0  0  0  0  0  0  0
    0.6437    4.7065    1.0768 H   0  0  0  0  0  0  0  0  0  0  0  0
   -0.0362    4.7117   -0.6256 H   0  0  0  0  0  0  0  0  0  0  0  0
    0.8660    5.5700    0.0000 H   0  0  0  0  0  0  0  0  0  0  0  0
    1.0115    3.1190   -1.0266 H   0  0  0  0  0  0  0  0  0  0  0  0
   -1.3490    3.2497    0.2670 H   0  0  0  0  0  0  0  0  0  0  0  0
   -0.3969    2.5787    1.5890 H   0  0  0  0  0  0  0  0  0  0  0  0
    2.5562   -0.3718   -0.2488 H   0  0  0  0  0  0  0  0  0  0  0  0
    2.9040   -2.7526    0.5745 H   0  0  0  0  0  0  0  0  0  0  0  0
    2.7235   -2.7327   -1.1783 H   0  0  0  0  0  0  0  0  0  0  0  0
   -0.7737   -3.9014    0.3547 H   0  0  0  0  0  0  0  0  0  0  0  0
    1.8807    1.9017    0.8867 H   0  0  0  0  0  0  0  0  0  0  0  0
    3.8457    1.3089    0.6478 H   0  0  0  0  0  0  0  0  0  0  0  0
    4.7245    4.3667   -0.1724 H   0  0  0  0  0  0  0  0  0  0  0  0
    3.1848    4.8492   -0.5869 H   0  0  0  0  0  0  0  0  0  0  0  0
  1 18  1  0  0  0  0
  1 19  1  0  0  0  0
  1 20  1  0  0  0  0
  2  1  1  0  0  0  0
  2  3  1  0  0  0  0
  2 14  1  0  0  0  0
  2 21  1  6  0  0  0
  3  4  1  0  0  0  0
  3 22  1  0  0  0  0
  3 23  1  0  0  0  0
  4  5  2  0  0  0  0
  4  6  1  0  0  0  0
  6  7  1  0  0  0  0
  7 12  1  0  0  0  0
  7  8  2  0  0  0  0
  8  9  1  0  0  0  0
  8 24  1  0  0  0  0
  9 10  1  0  0  0  0
  9 25  1  0  0  0  0
  9 26  1  0  0  0  0
 10 11  1  0  0  0  0
 11 12  2  0  0  0  0
 11 27  1  0  0  0  0
 12 13  1  0  0  0  0
 14 15  1  0  0  0  0
 14 28  1  0  0  0  0
 15 16  2  0  0  0  0
 15 17  1  0  0  0  0
 16 29  1  0  0  0  0
 17 30  1  0  0  0  0
 17 31  1  0  0  0  0
M  CHG  1  13  -1
M  END
$$$$
