
 OpenBabel03202621282D

 10 10  0  0  1  0  0  0  0  0999 V2000
    2.0000   -0.0000    0.0000 C   0  0  0  0  0  0  0  0  0  0  0  0
    1.0000   -0.0000    0.0000 C   0  0  0  0  0  0  0  0  0  0  0  0
    1.0000   -1.0000    0.0000 C   0  0  0  0  0  0  0  0  0  0  0  0
   -0.0000   -0.0000    0.0000 C   0  0  0  0  0  0  0  0  0  0  0  0
   -0.0000    1.0000    0.0000 N   0  0  0  0  0  0  0  0  0  0  0  0
    1.0000    1.0000    0.0000 C   0  0  1  0  0  0  0  0  0  0  0  0
    1.7071    1.7071    0.0000 C   0  0  0  0  0  0  0  0  0  0  0  0
    2.6730    1.4483    0.0000 O   0  0  0  0  0  0  0  0  0  0  0  0
    2.9319    0.4824    0.0000 C   0  0  0  0  0  0  0  0  0  0  0  0
    3.8978    0.2235    0.0000 O   0  0  0  0  0  0  0  0  0  0  0  0
  1  2  1  0  0  0  0
  2  6  1  0  0  0  0
  2  3  1  0  0  0  0
  2  4  1  0  0  0  0
  4  5  1  0  0  0  0
  5  6  1  0  0  0  0
  6  7  1  1  0  0  0
  7  8  1  0  0  0  0
  8  9  1  0  0  0  0
  9 10  2  0  0  0  0
M  END
$$$$
