
 OpenBabel03202621282D

 15 15  0  0  1  0  0  0  0  0999 V2000
    6.5622    0.6340    0.0000 C   0  0  0  0  0  0  0  0  0  0  0  0
    6.5622    1.6340    0.0000 S   0  0  0  0  0  0  0  0  0  0  0  0
    5.6962    2.1340    0.0000 C   0  0  0  0  0  0  0  0  0  0  0  0
    4.8301    1.6340    0.0000 C   0  0  1  0  0  0  0  0  0  0  0  0
    3.9641    2.1340    0.0000 O   0  0  0  0  0  0  0  0  0  0  0  0
    4.8301    0.6340    0.0000 C   0  0  0  0  0  0  0  0  0  0  0  0
    3.9641    0.1340    0.0000 O   0  0  0  0  0  0  0  0  0  0  0  0
    3.0981    0.6340    0.0000 C   0  0  0  0  0  0  0  0  0  0  0  0
    2.2321    0.1340    0.0000 C   0  0  1  0  0  0  0  0  0  0  0  0
    1.3660    0.6340    0.0000 C   0  0  0  0  0  0  0  0  0  0  0  0
    2.2321   -0.8660    0.0000 O   0  0  0  0  0  0  0  0  0  0  0  0
    1.3660   -1.3660    0.0000 C   0  0  0  0  0  0  0  0  0  0  0  0
    0.5000   -0.8660    0.0000 C   0  0  1  0  0  0  0  0  0  0  0  0
   -0.5000   -0.8660    0.0000 C   0  0  0  0  0  0  0  0  0  0  0  0
    0.0000    0.0000    0.0000 O   0  0  0  0  0  0  0  0  0  0  0  0
  1  2  1  0  0  0  0
  2  3  1  0  0  0  0
  3  4  1  0  0  0  0
  4  5  1  6  0  0  0
  4  6  1  0  0  0  0
  6  7  1  0  0  0  0
  7  8  1  0  0  0  0
  8  9  1  0  0  0  0
  9 10  1  6  0  0  0
  9 11  1  0  0  0  0
 11 12  1  0  0  0  0
 13 12  1  1  0  0  0
 13 14  1  0  0  0  0
 13 15  1  0  0  0  0
 14 15  1  0  0  0  0
M  END
$$$$
