
 OpenBabel03202621302D

 15 15  0  0  1  0  0  0  0  0999 V2000
    3.6332    2.0871   -0.1563 O   0  0  0  0  0  0  0  0  0  0  0  0
    2.7223    2.6143    0.4645 C   0  0  0  0  0  0  0  0  0  0  0  0
    1.7586    1.9851    1.1752 O   0  0  0  0  0  0  0  0  0  0  0  0
    1.7901    0.5391    1.1759 C   0  0  0  0  0  0  0  0  0  0  0  0
    1.0000    0.0000    0.0000 C   0  0  2  0  0  0  0  0  0  0  0  0
    0.5000   -0.8660    0.0000 C   0  0  0  0  0  0  0  0  0  0  0  0
    0.0000    0.0000    0.0000 C   0  0  0  0  0  0  0  0  0  0  0  0
   -0.5000    0.8660    0.0000 F   0  0  0  0  0  0  0  0  0  0  0  0
   -1.0000    0.0000    0.0000 F   0  0  0  0  0  0  0  0  0  0  0  0
    2.5559    3.7014    0.5154 H   0  0  0  0  0  0  0  0  0  0  0  0
    2.8284    0.1806    1.1366 H   0  0  0  0  0  0  0  0  0  0  0  0
    1.3883    0.2238    2.1490 H   0  0  0  0  0  0  0  0  0  0  0  0
    1.5362    0.3159   -0.8928 H   0  0  0  0  0  0  0  0  0  0  0  0
    0.4475   -1.5444    0.8519 H   0  0  0  0  0  0  0  0  0  0  0  0
    0.4755   -1.5249   -0.8696 H   0  0  0  0  0  0  0  0  0  0  0  0
  1  2  2  0  0  0  0
  2  3  1  0  0  0  0
  2 10  1  0  0  0  0
  3  4  1  0  0  0  0
  4 11  1  0  0  0  0
  4 12  1  0  0  0  0
  5  4  1  0  0  0  0
  5  6  1  0  0  0  0
  5  7  1  0  0  0  0
  5 13  1  1  0  0  0
  6  7  1  0  0  0  0
  6 14  1  0  0  0  0
  6 15  1  0  0  0  0
  7  8  1  0  0  0  0
  7  9  1  0  0  0  0
M  END
$$$$
