
 OpenBabel03202621372D

 39 41  0  0  1  0  0  0  0  0999 V2000
    3.2537    1.9286    0.0000 C   0  0  0  0  0  0  0  0  0  0  0  0
    2.2952    1.9253    0.0000 C   0  0  0  0  0  0  0  0  0  0  0  0
    1.6594    1.6981   -1.1999 C   0  0  0  0  0  0  0  0  0  0  0  0
    0.4567    1.6168   -0.6353 N   0  0  0  0  0  0  0  0  0  0  0  0
    0.0395    0.3226   -0.2768 C   0  0  2  0  0  0  0  0  0  0  0  0
   -0.7789    0.2799    1.0109 C   0  0  2  0  0  0  0  0  0  0  0  0
   -1.7365    1.3622    1.2007 O   0  0  0  0  0  0  0  0  0  0  0  0
   -2.5328    1.4328    0.0000 C   0  0  0  0  0  0  0  0  0  0  0  0
   -3.4101    1.9316    0.0000 C   0  0  0  0  0  0  0  0  0  0  0  0
   -3.4037    0.9228    0.0000 C   0  0  0  0  0  0  0  0  0  0  0  0
   -2.1826   -0.0752   -0.5773 O   0  0  0  0  0  0  0  0  0  0  0  0
   -1.5701   -0.8577    0.5082 C   0  0  2  0  0  0  0  0  0  0  0  0
   -0.6944   -1.8613   -0.0260 O   0  0  0  0  0  0  0  0  0  0  0  0
    0.4883   -1.1361   -0.5141 C   0  0  1  0  0  0  0  0  0  0  0  0
    1.6853   -1.9162    0.0596 C   0  0  2  0  0  0  0  0  0  0  0  0
    1.4285   -2.3624    1.3960 O   0  0  0  0  0  0  0  0  0  0  0  0
    3.0531   -1.2617    0.0165 C   0  0  0  0  0  0  0  0  0  0  0  0
    4.0947   -2.2212    0.1923 O   0  0  0  0  0  0  0  0  0  0  0  0
    0.3066    2.6140    0.2473 N   0  0  0  0  0  0  0  0  0  0  0  0
    1.4622    2.5884    0.8637 N   0  0  0  0  0  0  0  0  0  0  0  0
    3.4542    1.6007    1.0487 H   0  0  0  0  0  0  0  0  0  0  0  0
    3.4603    3.0278   -0.0789 H   0  0  0  0  0  0  0  0  0  0  0  0
    4.3237    1.9323    0.0000 H   0  0  0  0  0  0  0  0  0  0  0  0
    1.9529    1.2755   -2.1523 H   0  0  0  0  0  0  0  0  0  0  0  0
   -0.5245    0.3321   -1.2297 H   0  0  0  0  0  0  0  0  0  0  0  0
   -0.1929    0.1153    1.9166 H   0  0  0  0  0  0  0  0  0  0  0  0
   -3.1980    2.6377   -0.9169 H   0  0  0  0  0  0  0  0  0  0  0  0
   -3.2291    2.7390    0.8302 H   0  0  0  0  0  0  0  0  0  0  0  0
   -4.3403    2.4605    0.0000 H   0  0  0  0  0  0  0  0  0  0  0  0
   -3.7362    0.5547   -1.1638 H   0  0  0  0  0  0  0  0  0  0  0  0
   -3.4996    0.2581    0.9759 H   0  0  0  0  0  0  0  0  0  0  0  0
   -4.3270    0.3821    0.0000 H   0  0  0  0  0  0  0  0  0  0  0  0
   -2.3070   -1.2890    1.1937 H   0  0  0  0  0  0  0  0  0  0  0  0
    0.5259   -1.3129   -1.5980 H   0  0  0  0  0  0  0  0  0  0  0  0
    1.7577   -2.8475   -0.5238 H   0  0  0  0  0  0  0  0  0  0  0  0
    0.5968   -2.8713    1.3419 H   0  0  0  0  0  0  0  0  0  0  0  0
    3.2388   -0.7740   -0.9401 H   0  0  0  0  0  0  0  0  0  0  0  0
    3.1502   -0.5547    0.8548 H   0  0  0  0  0  0  0  0  0  0  0  0
    3.7258   -2.9703    0.6943 H   0  0  0  0  0  0  0  0  0  0  0  0
  1  2  1  0  0  0  0
  1 21  1  0  0  0  0
  1 22  1  0  0  0  0
  1 23  1  0  0  0  0
  2 20  1  0  0  0  0
  2  3  2  0  0  0  0
  3  4  1  0  0  0  0
  3 24  1  0  0  0  0
  4 19  1  0  0  0  0
  5  4  1  0  0  0  0
  5  6  1  0  0  0  0
  5 14  1  0  0  0  0
  5 25  1  6  0  0  0
  6  7  1  0  0  0  0
  6 12  1  0  0  0  0
  6 26  1  6  0  0  0
  7  8  1  0  0  0  0
  8  9  1  0  0  0  0
  8 10  1  0  0  0  0
  8 11  1  0  0  0  0
  9 27  1  0  0  0  0
  9 28  1  0  0  0  0
  9 29  1  0  0  0  0
 10 30  1  0  0  0  0
 10 31  1  0  0  0  0
 10 32  1  0  0  0  0
 12 11  1  0  0  0  0
 12 13  1  0  0  0  0
 12 33  1  6  0  0  0
 13 14  1  0  0  0  0
 14 15  1  0  0  0  0
 14 34  1  1  0  0  0
 15 16  1  0  0  0  0
 15 17  1  0  0  0  0
 15 35  1  6  0  0  0
 16 36  1  0  0  0  0
 17 18  1  0  0  0  0
 17 37  1  0  0  0  0
 17 38  1  0  0  0  0
 18 39  1  0  0  0  0
 19 20  2  0  0  0  0
M  END
$$$$
