
 OpenBabel03202621302D

 25 26  0  0  1  0  0  0  0  0999 V2000
    3.5878   -0.8090    0.0000 C   0  0  0  0  0  0  0  0  0  0  0  0
    3.0878    0.0570    0.0000 S   0  0  0  0  0  0  0  0  0  0  0  0
    1.4956    0.1624    0.6437 C   0  0  0  0  0  0  0  0  0  0  0  0
    1.0189    1.2425    0.9583 O   0  0  0  0  0  0  0  0  0  0  0  0
    0.8350   -1.0375    0.6936 N   0  0  0  0  0  0  0  0  0  0  0  0
   -0.1846   -1.2343   -0.3195 C   0  0  1  0  0  0  0  0  0  0  0  0
   -1.0406   -2.4821   -0.0447 C   0  0  0  0  0  0  0  0  0  0  0  0
   -2.3839   -1.8699    0.0159 C   0  0  0  0  0  0  0  0  0  0  0  0
   -3.6098   -2.4627    0.2519 C   0  0  0  0  0  0  0  0  0  0  0  0
   -4.7471   -1.6474    0.2441 C   0  0  0  0  0  0  0  0  0  0  0  0
   -4.6406   -0.2679    0.0008 C   0  0  0  0  0  0  0  0  0  0  0  0
   -3.3951    0.3130   -0.2349 C   0  0  0  0  0  0  0  0  0  0  0  0
   -2.2900   -0.5105   -0.2197 C   0  0  0  0  0  0  0  0  0  0  0  0
   -1.0197   -0.0676   -0.4323 O   0  0  0  0  0  0  0  0  0  0  0  0
    3.1875   -1.2505   -0.9349 H   0  0  0  0  0  0  0  0  0  0  0  0
    4.6005   -0.4217   -0.2211 H   0  0  0  0  0  0  0  0  0  0  0  0
    4.1228   -1.7356    0.0000 H   0  0  0  0  0  0  0  0  0  0  0  0
    1.4705   -1.8169    0.7155 H   0  0  0  0  0  0  0  0  0  0  0  0
    0.3456   -1.3486   -1.2744 H   0  0  0  0  0  0  0  0  0  0  0  0
   -0.7714   -2.9843    0.8897 H   0  0  0  0  0  0  0  0  0  0  0  0
   -0.9652   -3.1909   -0.8759 H   0  0  0  0  0  0  0  0  0  0  0  0
   -3.6938   -3.5256    0.4416 H   0  0  0  0  0  0  0  0  0  0  0  0
   -5.7235   -2.0837    0.4298 H   0  0  0  0  0  0  0  0  0  0  0  0
   -5.5322    0.3530   -0.0010 H   0  0  0  0  0  0  0  0  0  0  0  0
   -3.2910    1.3762   -0.4197 H   0  0  0  0  0  0  0  0  0  0  0  0
  1  2  1  0  0  0  0
  1 15  1  0  0  0  0
  1 16  1  0  0  0  0
  1 17  1  0  0  0  0
  2  3  1  0  0  0  0
  3  4  2  0  0  0  0
  3  5  1  0  0  0  0
  5 18  1  0  0  0  0
  6  5  1  0  0  0  0
  6  7  1  0  0  0  0
  6 14  1  0  0  0  0
  6 19  1  6  0  0  0
  7  8  1  0  0  0  0
  7 20  1  0  0  0  0
  7 21  1  0  0  0  0
  8 13  2  0  0  0  0
  8  9  1  0  0  0  0
  9 10  2  0  0  0  0
  9 22  1  0  0  0  0
 10 11  1  0  0  0  0
 10 23  1  0  0  0  0
 11 12  2  0  0  0  0
 11 24  1  0  0  0  0
 12 13  1  0  0  0  0
 12 25  1  0  0  0  0
 13 14  1  0  0  0  0
M  END
$$$$
