
 OpenBabel03202621342D

 20 20  0  0  0  0  0  0  0  0999 V2000
   -0.8660   -1.5000    0.0000 C   0  0  0  0  0  0  0  0  0  0  0  0
   -0.8660   -0.5000    0.0000 C   0  0  0  0  0  0  0  0  0  0  0  0
   -2.0740   -0.1974    0.0000 C   0  0  0  0  0  0  0  0  0  0  0  0
   -1.7321    1.0000    0.0000 C   0  0  0  0  0  0  0  0  0  0  0  0
   -2.5981    1.5000    0.0000 C   0  0  0  0  0  0  0  0  0  0  0  0
   -0.4157    1.8572   -0.0000 C   0  0  0  0  0  0  0  0  0  0  0  0
   -0.5209    3.2700   -0.0000 O   0  0  0  0  0  0  0  0  0  0  0  0
    0.5604    4.1467   -0.0000 C   0  0  0  0  0  0  0  0  0  0  0  0
    1.7496    3.8784    0.0000 O   0  0  0  0  0  0  0  0  0  0  0  0
    0.7496    1.2448    0.0000 C   0  0  0  0  0  0  0  0  0  0  0  0
    0.5185   -0.0088   -0.0000 N   0  0  0  0  0  0  0  0  0  0  0  0
   -1.8447   -2.0684   -0.0000 H   0  0  0  0  0  0  0  0  0  0  0  0
    0.1722   -1.9041   -0.0000 H   0  0  0  0  0  0  0  0  0  0  0  0
   -0.8660   -2.5700    0.0000 H   0  0  0  0  0  0  0  0  0  0  0  0
   -3.0085   -0.7394    0.0000 H   0  0  0  0  0  0  0  0  0  0  0  0
   -2.4438    2.5873   -0.0000 H   0  0  0  0  0  0  0  0  0  0  0  0
   -3.5795    0.9348   -0.0000 H   0  0  0  0  0  0  0  0  0  0  0  0
   -3.5247    2.0350    0.0000 H   0  0  0  0  0  0  0  0  0  0  0  0
    0.1541    5.1710   -0.0000 H   0  0  0  0  0  0  0  0  0  0  0  0
    1.7552    1.6127    0.0000 H   0  0  0  0  0  0  0  0  0  0  0  0
  1  2  1  0  0  0  0
  1 12  1  0  0  0  0
  1 13  1  0  0  0  0
  1 14  1  0  0  0  0
  2 11  2  0  0  0  0
  2  3  1  0  0  0  0
  3  4  2  0  0  0  0
  3 15  1  0  0  0  0
  4  5  1  0  0  0  0
  4  6  1  0  0  0  0
  5 16  1  0  0  0  0
  5 17  1  0  0  0  0
  5 18  1  0  0  0  0
  6  7  1  0  0  0  0
  6 10  2  0  0  0  0
  7  8  1  0  0  0  0
  8  9  2  0  0  0  0
  8 19  1  0  0  0  0
 10 11  1  0  0  0  0
 10 20  1  0  0  0  0
M  END
$$$$
