
 OpenBabel03202621332D

 19 18  0  0  0  0  0  0  0  0999 V2000
    4.3301    0.5000    0.0000 C   0  0  0  0  0  0  0  0  0  0  0  0
    4.3301    1.5000    0.0000 C   0  0  0  0  0  0  0  0  0  0  0  0
    3.8620    2.7664   -0.0000 C   0  0  0  0  0  0  0  0  0  0  0  0
    2.4903    2.8437   -0.0000 C   0  0  0  0  0  0  0  0  0  0  0  0
    1.3358    3.4474   -0.0000 C   0  0  0  0  0  0  0  0  0  0  0  0
    0.2791    2.3919   -0.0000 C   0  0  0  0  0  0  0  0  0  0  0  0
   -0.9068    2.7109    0.0000 O   0  0  0  0  0  0  0  0  0  0  0  0
    0.8660    0.5000    0.0000 S   0  0  0  0  0  0  0  0  0  0  0  0
    0.0000    0.0000    0.0000 C   0  0  0  0  0  0  0  0  0  0  0  0
    3.3114    0.1523    0.0000 H   0  0  0  0  0  0  0  0  0  0  0  0
    5.3758    0.1386    0.0000 H   0  0  0  0  0  0  0  0  0  0  0  0
    4.3301   -0.5700    0.0000 H   0  0  0  0  0  0  0  0  0  0  0  0
    5.3987    1.8300   -0.0000 H   0  0  0  0  0  0  0  0  0  0  0  0
    4.4679    3.6676    0.0000 H   0  0  0  0  0  0  0  0  0  0  0  0
    2.3615    1.8231   -0.0000 H   0  0  0  0  0  0  0  0  0  0  0  0
    1.1430    4.5020    0.0000 H   0  0  0  0  0  0  0  0  0  0  0  0
   -0.8846    0.6287   -0.0000 H   0  0  0  0  0  0  0  0  0  0  0  0
    0.2664   -1.0620   -0.0000 H   0  0  0  0  0  0  0  0  0  0  0  0
   -0.9266   -0.5350    0.0000 H   0  0  0  0  0  0  0  0  0  0  0  0
  1  2  1  0  0  0  0
  1 10  1  0  0  0  0
  1 11  1  0  0  0  0
  1 12  1  0  0  0  0
  2  3  2  3  0  0  0
  2 13  1  0  0  0  0
  3  4  1  0  0  0  0
  3 14  1  0  0  0  0
  4  5  2  3  0  0  0
  4 15  1  0  0  0  0
  5  6  1  0  0  0  0
  5 16  1  0  0  0  0
  6  7  2  0  0  0  0
  6  8  1  0  0  0  0
  8  9  1  0  0  0  0
  9 17  1  0  0  0  0
  9 18  1  0  0  0  0
  9 19  1  0  0  0  0
M  END
$$$$
