
 OpenBabel03202621382D

 24 24  0  0  1  0  0  0  0  0999 V2000
    2.8063   -0.4831    0.0000 C   0  0  0  0  0  0  0  0  0  0  0  0
    2.2616    0.3556    0.0000 S   0  0  0  0  0  0  0  0  0  0  0  0
    0.9635    0.3824    1.1212 C   0  0  0  0  0  0  0  0  0  0  0  0
    0.8090   -0.5878    0.0000 C   0  0  2  0  0  0  0  0  0  0  0  0
    1.5919   -1.2100    0.0000 C   0  0  0  0  0  0  0  0  0  0  0  0
   -0.5003   -1.6072    0.5758 C   0  0  0  0  0  0  0  0  0  0  0  0
   -1.8147   -1.3049   -0.1138 C   0  0  0  0  0  0  0  0  0  0  0  0
   -1.6351    0.1029   -0.6027 C   0  0  0  0  0  0  0  0  0  0  0  0
   -0.2136    0.0256   -1.1054 C   0  0  0  0  0  0  0  0  0  0  0  0
    0.1013    0.4101   -2.2212 O   0  0  0  0  0  0  0  0  0  0  0  0
    3.4456   -0.2590   -0.9055 H   0  0  0  0  0  0  0  0  0  0  0  0
    3.5115   -0.2293    0.8464 H   0  0  0  0  0  0  0  0  0  0  0  0
    3.3891   -1.3805    0.0000 H   0  0  0  0  0  0  0  0  0  0  0  0
    1.1806    0.0335    2.1232 H   0  0  0  0  0  0  0  0  0  0  0  0
    0.3737    1.3063    1.0790 H   0  0  0  0  0  0  0  0  0  0  0  0
    1.4538   -1.8682    0.9566 H   0  0  0  0  0  0  0  0  0  0  0  0
    1.2868   -1.8925   -0.8797 H   0  0  0  0  0  0  0  0  0  0  0  0
    2.4296   -1.8757    0.0000 H   0  0  0  0  0  0  0  0  0  0  0  0
   -0.2872   -2.6703    0.3699 H   0  0  0  0  0  0  0  0  0  0  0  0
   -0.5989   -1.5155    1.6653 H   0  0  0  0  0  0  0  0  0  0  0  0
   -2.6669   -1.4420    0.5474 H   0  0  0  0  0  0  0  0  0  0  0  0
   -1.9473   -1.9858   -0.9689 H   0  0  0  0  0  0  0  0  0  0  0  0
   -1.7189    0.8136    0.2298 H   0  0  0  0  0  0  0  0  0  0  0  0
   -2.3520    0.3600   -1.3747 H   0  0  0  0  0  0  0  0  0  0  0  0
  1  2  1  0  0  0  0
  1 11  1  0  0  0  0
  1 12  1  0  0  0  0
  1 13  1  0  0  0  0
  2  3  1  0  0  0  0
  3 14  1  0  0  0  0
  3 15  1  0  0  0  0
  4  3  1  6  0  0  0
  4  9  1  0  0  0  0
  4  5  1  0  0  0  0
  4  6  1  0  0  0  0
  5 16  1  0  0  0  0
  5 17  1  0  0  0  0
  5 18  1  0  0  0  0
  6  7  1  0  0  0  0
  6 19  1  0  0  0  0
  6 20  1  0  0  0  0
  7  8  1  0  0  0  0
  7 21  1  0  0  0  0
  7 22  1  0  0  0  0
  8  9  1  0  0  0  0
  8 23  1  0  0  0  0
  8 24  1  0  0  0  0
  9 10  2  0  0  0  0
M  END
$$$$
