
 OpenBabel03202621302D

 17 17  0  0  0  0  0  0  0  0999 V2000
   -0.1280   -2.6736    0.0000 C   0  0  0  0  0  0  0  0  0  0  0  0
    0.2788   -1.7601    0.0000 S   0  0  0  0  0  0  0  0  0  0  0  0
   -0.9737   -0.8504   -0.0000 C   0  0  0  0  0  0  0  0  0  0  0  0
   -2.2961   -0.6998   -0.0000 C   0  0  0  0  0  0  0  0  0  0  0  0
   -3.1620   -1.7179    0.0000 N   0  0  0  0  0  0  0  0  0  0  0  0
   -2.4030    0.6245    0.0000 N   0  0  0  0  0  0  0  0  0  0  0  0
   -1.0466    1.1222    0.0000 O   0  0  0  0  0  0  0  0  0  0  0  0
    0.0000    0.0000    0.0000 C   0  0  0  0  0  0  0  0  0  0  0  0
    0.9511    0.3090    0.0000 C   0  0  0  0  0  0  0  0  0  0  0  0
   -1.1979   -2.8054   -0.0000 H   0  0  0  0  0  0  0  0  0  0  0  0
    0.7242   -3.3666    0.0000 H   0  0  0  0  0  0  0  0  0  0  0  0
   -0.5633   -3.6511    0.0000 H   0  0  0  0  0  0  0  0  0  0  0  0
   -4.1641   -1.6185    0.0000 H   0  0  0  0  0  0  0  0  0  0  0  0
   -2.8972   -2.7180    0.0000 H   0  0  0  0  0  0  0  0  0  0  0  0
    1.8068   -0.4122    0.0000 H   0  0  0  0  0  0  0  0  0  0  0  0
    0.9532    1.4164    0.0000 H   0  0  0  0  0  0  0  0  0  0  0  0
    1.9687    0.6396    0.0000 H   0  0  0  0  0  0  0  0  0  0  0  0
  1  2  1  0  0  0  0
  1 10  1  0  0  0  0
  1 11  1  0  0  0  0
  1 12  1  0  0  0  0
  2  3  1  0  0  0  0
  3  8  2  0  0  0  0
  3  4  1  0  0  0  0
  4  5  1  0  0  0  0
  4  6  2  0  0  0  0
  5 13  1  0  0  0  0
  5 14  1  0  0  0  0
  6  7  1  0  0  0  0
  7  8  1  0  0  0  0
  8  9  1  0  0  0  0
  9 15  1  0  0  0  0
  9 16  1  0  0  0  0
  9 17  1  0  0  0  0
M  END
$$$$
