
 OpenBabel03202621312D

 16 15  0  0  0  0  0  0  0  0999 V2000
    4.3301   -1.5000    0.0000 C   0  0  0  0  0  0  0  0  0  0  0  0
    4.3301   -0.5000    0.0000 S   0  0  0  0  0  0  0  0  0  0  0  0
    4.3064    1.1324    0.0032 C   0  0  0  0  0  0  0  0  0  0  0  0
    3.0878    1.6225    0.0077 C   0  0  0  0  0  0  0  0  0  0  0  0
    1.6650    1.5251    0.0373 C   0  0  0  0  0  0  0  0  0  0  0  0
    0.9820    2.5491    0.0319 O   0  0  0  0  0  0  0  0  0  0  0  0
    0.8660   -0.5000    0.0000 S   0  0  0  0  0  0  0  0  0  0  0  0
    0.0000    0.0000    0.0000 C   0  0  0  0  0  0  0  0  0  0  0  0
    3.2951   -1.8359   -0.0008 H   0  0  0  0  0  0  0  0  0  0  0  0
    5.3774   -1.8131   -0.0001 H   0  0  0  0  0  0  0  0  0  0  0  0
    4.3301   -2.5700    0.0000 H   0  0  0  0  0  0  0  0  0  0  0  0
    5.1576    1.8008    0.0024 H   0  0  0  0  0  0  0  0  0  0  0  0
    2.6829    0.6420   -0.0723 H   0  0  0  0  0  0  0  0  0  0  0  0
   -0.1057    1.0531   -0.0653 H   0  0  0  0  0  0  0  0  0  0  0  0
   -0.7672   -0.7862   -0.0074 H   0  0  0  0  0  0  0  0  0  0  0  0
   -0.9266    0.5350    0.0000 H   0  0  0  0  0  0  0  0  0  0  0  0
  1  2  1  0  0  0  0
  1  9  1  0  0  0  0
  1 10  1  0  0  0  0
  1 11  1  0  0  0  0
  2  3  1  0  0  0  0
  3  4  2  3  0  0  0
  3 12  1  0  0  0  0
  4  5  1  0  0  0  0
  4 13  1  0  0  0  0
  5  6  2  0  0  0  0
  5  7  1  0  0  0  0
  7  8  1  0  0  0  0
  8 14  1  0  0  0  0
  8 15  1  0  0  0  0
  8 16  1  0  0  0  0
M  END
$$$$
