
 OpenBabel03202621352D

 20 19  0  0  1  0  0  0  0  0999 V2000
    3.4641   -3.0000    0.0000 C   0  0  0  0  0  0  0  0  0  0  0  0
    4.3301   -2.5000    0.0000 C   0  0  0  0  0  0  0  0  0  0  0  0
    4.3301   -1.5000    0.0000 C   0  0  2  0  0  0  0  0  0  0  0  0
    5.0588   -0.1475    0.0000 O   0  0  0  0  0  0  0  0  0  0  0  0
    3.4641   -1.0000    0.0000 C   0  0  0  0  0  0  0  0  0  0  0  0
    2.5981   -0.5000    0.0000 C   0  0  0  0  0  0  0  0  0  0  0  0
    1.9756    0.6776    0.0000 C   0  0  0  0  0  0  0  0  0  0  0  0
    2.2078    1.8617   -0.0000 O   0  0  0  0  0  0  0  0  0  0  0  0
    0.8660   -0.5000    0.0000 S   0  0  0  0  0  0  0  0  0  0  0  0
    0.0000    0.0000    0.0000 C   0  0  0  0  0  0  0  0  0  0  0  0
    2.4467   -2.5563    0.0000 H   0  0  0  0  0  0  0  0  0  0  0  0
    3.5655   -4.1428    0.0000 H   0  0  0  0  0  0  0  0  0  0  0  0
    2.5375   -3.5350    0.0000 H   0  0  0  0  0  0  0  0  0  0  0  0
    4.8910   -3.4824   -0.0000 H   0  0  0  0  0  0  0  0  0  0  0  0
    5.4691   -2.8295    0.0000 H   0  0  0  0  0  0  0  0  0  0  0  0
    5.4028   -1.4541   -0.0000 H   0  0  0  0  0  0  0  0  0  0  0  0
    6.0379   -0.0910    0.0000 H   0  0  0  0  0  0  0  0  0  0  0  0
    0.0564    1.1038   -0.0000 H   0  0  0  0  0  0  0  0  0  0  0  0
   -0.7860   -0.7646   -0.0000 H   0  0  0  0  0  0  0  0  0  0  0  0
   -0.9266    0.5350    0.0000 H   0  0  0  0  0  0  0  0  0  0  0  0
  1  2  1  0  0  0  0
  1 11  1  0  0  0  0
  1 12  1  0  0  0  0
  1 13  1  0  0  0  0
  2  3  1  0  0  0  0
  2 14  1  0  0  0  0
  2 15  1  0  0  0  0
  3  4  1  0  0  0  0
  3  5  1  0  0  0  0
  3 16  1  6  0  0  0
  4 17  1  0  0  0  0
  5  6  3  0  0  0  0
  6  7  1  0  0  0  0
  7  8  2  0  0  0  0
  7  9  1  0  0  0  0
  9 10  1  0  0  0  0
 10 18  1  0  0  0  0
 10 19  1  0  0  0  0
 10 20  1  0  0  0  0
M  END
$$$$
