
 OpenBabel03202621312D

 18 17  0  0  1  0  0  0  0  0999 V2000
    2.5981   -1.5000    0.0000 C   0  0  0  0  0  0  0  0  0  0  0  0
    3.4641   -1.0000    0.0000 S   0  0  0  0  0  0  0  0  0  0  0  0
    3.2995    0.6885    0.4111 C   0  0  0  0  0  0  0  0  0  0  0  0
    4.2033    1.2350    1.0444 O   0  0  0  0  0  0  0  0  0  0  0  0
    2.1203    1.5273   -0.1277 C   0  0  1  0  0  0  0  0  0  0  0  0
    2.1538    2.7906    0.5673 O   0  0  0  0  0  0  0  0  0  0  0  0
    0.7403    0.9284    0.0916 C   0  0  0  0  0  0  0  0  0  0  0  0
   -0.3359    1.8174   -0.4562 C   0  0  0  0  0  0  0  0  0  0  0  0
   -0.2822    2.4995   -1.4657 O   0  0  0  0  0  0  0  0  0  0  0  0
   -1.4880    1.6971    0.2333 O   0  0  0  0  0  0  0  0  0  0  0  0
    2.5278   -1.7419    1.0798 H   0  0  0  0  0  0  0  0  0  0  0  0
    2.9277   -2.4136   -0.5300 H   0  0  0  0  0  0  0  0  0  0  0  0
    1.6715   -2.0350    0.0000 H   0  0  0  0  0  0  0  0  0  0  0  0
    2.3078    1.7353   -1.1868 H   0  0  0  0  0  0  0  0  0  0  0  0
    3.0982    3.0035    0.7197 H   0  0  0  0  0  0  0  0  0  0  0  0
    0.5670    0.7787    1.1639 H   0  0  0  0  0  0  0  0  0  0  0  0
    0.6148   -0.0274   -0.4209 H   0  0  0  0  0  0  0  0  0  0  0  0
   -2.1118    2.2962   -0.2292 H   0  0  0  0  0  0  0  0  0  0  0  0
  1  2  1  0  0  0  0
  1 11  1  0  0  0  0
  1 12  1  0  0  0  0
  1 13  1  0  0  0  0
  2  3  1  0  0  0  0
  3  4  2  0  0  0  0
  3  5  1  0  0  0  0
  5  6  1  0  0  0  0
  5  7  1  0  0  0  0
  5 14  1  1  0  0  0
  6 15  1  0  0  0  0
  7  8  1  0  0  0  0
  7 16  1  0  0  0  0
  7 17  1  0  0  0  0
  8  9  2  0  0  0  0
  8 10  1  0  0  0  0
 10 18  1  0  0  0  0
M  END
$$$$
