
 OpenBabel03202621392D

 38 39  0  0  1  0  0  0  0  0999 V2000
    3.4519   -4.6738   -0.3288 C   0  0  0  0  0  0  0  0  0  0  0  0
    4.6395   -3.5668   -1.1444 S   0  0  0  0  0  0  0  0  0  0  0  0
    4.6611   -2.1400    0.0370 C   0  0  2  0  0  0  0  0  0  0  0  0
    5.7385   -1.1232   -0.3746 C   0  0  0  0  0  0  0  0  0  0  0  0
    5.2637   -0.2522   -1.3944 O   0  0  0  0  0  0  0  0  0  0  0  0
    3.2689   -1.5221    0.1069 C   0  0  0  0  0  0  0  0  0  0  0  0
    3.1722   -0.1969    0.8796 C   0  0  0  0  0  0  0  0  0  0  0  0
    1.7704    0.1892    0.9491 N   0  0  0  0  0  0  0  0  0  0  0  0
    0.7996   -0.6587    1.4109 C   0  0  0  0  0  0  0  0  0  0  0  0
   -0.1488   -0.5497    0.4253 C   0  0  0  0  0  0  0  0  0  0  0  0
   -1.2261   -1.4689    0.2190 C   0  0  0  0  0  0  0  0  0  0  0  0
   -1.0474   -2.8522    0.3014 C   0  0  0  0  0  0  0  0  0  0  0  0
   -2.1535   -3.6720    0.1996 C   0  0  0  0  0  0  0  0  0  0  0  0
   -3.4267   -3.0979    0.0723 C   0  0  0  0  0  0  0  0  0  0  0  0
   -3.6808   -1.7024    0.0000 C   0  0  0  0  0  0  0  0  0  0  0  0
   -4.5468   -1.2024    0.0000 C   0  0  0  0  0  0  0  0  0  0  0  0
   -2.4929   -0.9462   -0.0062 C   0  0  0  0  0  0  0  0  0  0  0  0
    0.0890    0.5603   -0.3297 N   0  0  0  0  0  0  0  0  0  0  0  0
    1.2756    1.0370    0.0284 N   0  0  0  0  0  0  0  0  0  0  0  0
    2.4635   -4.2172   -0.2354 H   0  0  0  0  0  0  0  0  0  0  0  0
    3.8193   -4.9669    0.6579 H   0  0  0  0  0  0  0  0  0  0  0  0
    3.3339   -5.5766   -0.9351 H   0  0  0  0  0  0  0  0  0  0  0  0
    4.9372   -2.5539    1.0137 H   0  0  0  0  0  0  0  0  0  0  0  0
    6.6587   -1.6073   -0.7122 H   0  0  0  0  0  0  0  0  0  0  0  0
    5.9870   -0.5025    0.4937 H   0  0  0  0  0  0  0  0  0  0  0  0
    5.8812    0.4965   -1.4607 H   0  0  0  0  0  0  0  0  0  0  0  0
    2.6093   -2.2505    0.5910 H   0  0  0  0  0  0  0  0  0  0  0  0
    2.8583   -1.3686   -0.9017 H   0  0  0  0  0  0  0  0  0  0  0  0
    3.5319   -0.2946    1.9093 H   0  0  0  0  0  0  0  0  0  0  0  0
    3.7061    0.6226    0.3893 H   0  0  0  0  0  0  0  0  0  0  0  0
    0.9758   -1.3959    2.1815 H   0  0  0  0  0  0  0  0  0  0  0  0
   -0.0632   -3.2866    0.4384 H   0  0  0  0  0  0  0  0  0  0  0  0
   -2.0509   -4.7507    0.2530 H   0  0  0  0  0  0  0  0  0  0  0  0
   -4.2668   -3.7983    0.0592 H   0  0  0  0  0  0  0  0  0  0  0  0
   -4.5546   -0.8422    1.0617 H   0  0  0  0  0  0  0  0  0  0  0  0
   -5.3068   -2.0178   -0.0600 H   0  0  0  0  0  0  0  0  0  0  0  0
   -5.4734   -0.6674    0.0000 H   0  0  0  0  0  0  0  0  0  0  0  0
   -2.5697    0.1496   -0.0913 H   0  0  0  0  0  0  0  0  0  0  0  0
  1  2  1  0  0  0  0
  1 20  1  0  0  0  0
  1 21  1  0  0  0  0
  1 22  1  0  0  0  0
  2  3  1  0  0  0  0
  3  4  1  0  0  0  0
  3  6  1  0  0  0  0
  3 23  1  6  0  0  0
  4  5  1  0  0  0  0
  4 24  1  0  0  0  0
  4 25  1  0  0  0  0
  5 26  1  0  0  0  0
  6  7  1  0  0  0  0
  6 27  1  0  0  0  0
  6 28  1  0  0  0  0
  7  8  1  0  0  0  0
  7 29  1  0  0  0  0
  7 30  1  0  0  0  0
  8 19  1  0  0  0  0
  8  9  1  0  0  0  0
  9 10  2  0  0  0  0
  9 31  1  0  0  0  0
 10 11  1  0  0  0  0
 10 18  1  0  0  0  0
 11 17  2  0  0  0  0
 11 12  1  0  0  0  0
 12 13  2  0  0  0  0
 12 32  1  0  0  0  0
 13 14  1  0  0  0  0
 13 33  1  0  0  0  0
 14 15  2  0  0  0  0
 14 34  1  0  0  0  0
 15 16  1  0  0  0  0
 15 17  1  0  0  0  0
 16 35  1  0  0  0  0
 16 36  1  0  0  0  0
 16 37  1  0  0  0  0
 17 38  1  0  0  0  0
 18 19  2  0  0  0  0
M  END
$$$$
