
 OpenBabel03202621282D

 19 20  0  0  1  0  0  0  0  0999 V2000
    0.4612   -1.7213    0.0000 C   0  0  0  0  0  0  0  0  0  0  0  0
   -0.2079   -0.9781    0.0000 C   0  0  0  0  0  0  0  0  0  0  0  0
   -1.2024   -1.0827    0.0000 C   0  0  0  0  0  0  0  0  0  0  0  0
   -1.6092   -0.1691    0.0000 N   0  0  0  0  0  0  0  0  0  0  0  0
   -2.5873    0.0388    0.0000 C   0  0  1  0  0  0  0  0  0  0  0  0
   -3.3305   -0.6303    0.0000 C   0  0  0  0  0  0  0  0  0  0  0  0
   -4.1965   -0.1303    0.0000 N   0  0  0  0  0  0  0  0  0  0  0  0
   -5.1100   -0.5371    0.0000 C   0  0  0  0  0  0  0  0  0  0  0  0
   -5.9191    0.0507    0.0000 O   0  0  0  0  0  0  0  0  0  0  0  0
   -5.2146   -1.5316    0.0000 O   0  0  0  0  0  0  0  0  0  0  0  0
   -6.1281   -1.9383    0.0000 C   0  0  0  0  0  0  0  0  0  0  0  0
   -6.7159   -2.7474    0.0000 C   0  0  0  0  0  0  0  0  0  0  0  0
   -5.7214   -2.8519    0.0000 C   0  0  0  0  0  0  0  0  0  0  0  0
   -6.9371   -1.3506    0.0000 C   0  0  0  0  0  0  0  0  0  0  0  0
   -3.9886    0.8478    0.0000 C   0  0  0  0  0  0  0  0  0  0  0  0
   -2.9941    0.9523    0.0000 C   0  0  1  0  0  0  0  0  0  0  0  0
   -2.4941    1.8184    0.0000 O   0  0  0  0  0  0  0  0  0  0  0  0
   -0.8660    0.5000    0.0000 N   0  0  0  0  0  0  0  0  0  0  0  0
   -0.0000   -0.0000    0.0000 N   0  0  0  0  0  0  0  0  0  0  0  0
  1  2  1  0  0  0  0
  2 19  1  0  0  0  0
  2  3  2  0  0  0  0
  3  4  1  0  0  0  0
  4 18  1  0  0  0  0
  5  4  1  1  0  0  0
  5  6  1  0  0  0  0
  5 16  1  0  0  0  0
  6  7  1  0  0  0  0
  7  8  1  0  0  0  0
  7 15  1  0  0  0  0
  8  9  2  0  0  0  0
  8 10  1  0  0  0  0
 10 11  1  0  0  0  0
 11 12  1  0  0  0  0
 11 13  1  0  0  0  0
 11 14  1  0  0  0  0
 15 16  1  0  0  0  0
 16 17  1  1  0  0  0
 18 19  2  0  0  0  0
M  END
$$$$
