
 OpenBabel03202621352D

 27 28  0  0  0  0  0  0  0  0999 V2000
   -4.1709   -0.9982   -1.4016 O   0  5  0  0  0  0  0  0  0  0  0  0
   -4.9351   -0.2900   -0.6905 C   0  0  0  0  0  0  0  0  0  0  0  0
   -6.2049   -0.5068   -0.2928 C   0  0  0  0  0  0  0  0  0  0  0  0
   -7.0084    0.3584    0.4079 O   0  0  0  0  0  0  0  0  0  0  0  0
   -6.5759    1.7243    0.3968 C   0  0  0  0  0  0  0  0  0  0  0  0
   -5.1060    1.9336    0.2653 C   0  0  0  0  0  0  0  0  0  0  0  0
   -4.3287    0.9601   -0.2208 C   0  0  0  0  0  0  0  0  0  0  0  0
   -2.9468    1.2205   -0.4308 O   0  0  0  0  0  0  0  0  0  0  0  0
   -1.8893    0.5937    0.1751 C   0  0  0  0  0  0  0  0  0  0  0  0
   -2.0073   -0.2752    1.5985 S   0  0  0  0  0  0  0  0  0  0  0  0
   -0.7413    1.0790   -0.4125 N   0  0  0  0  0  0  0  0  0  0  0  0
    0.6125    0.7603   -0.1973 C   0  0  0  0  0  0  0  0  0  0  0  0
    1.5366    1.8079   -0.2941 C   0  0  0  0  0  0  0  0  0  0  0  0
    1.1034    3.0593   -0.5196 F   0  0  0  0  0  0  0  0  0  0  0  0
    2.9007    1.5823   -0.1245 C   0  0  0  0  0  0  0  0  0  0  0  0
    3.7635    2.6063   -0.1840 F   0  0  0  0  0  0  0  0  0  0  0  0
    3.3826    0.3021    0.1000 C   0  0  0  0  0  0  0  0  0  0  0  0
    2.4760   -0.7497    0.1562 C   0  0  0  0  0  0  0  0  0  0  0  0
    2.9467   -1.9951    0.3129 F   0  0  0  0  0  0  0  0  0  0  0  0
    1.1026   -0.5316    0.0170 C   0  0  0  0  0  0  0  0  0  0  0  0
    0.2957   -1.5996   -0.0225 F   0  0  0  0  0  0  0  0  0  0  0  0
   -6.7252   -1.4314   -0.5024 H   0  0  0  0  0  0  0  0  0  0  0  0
   -7.0926    2.2399   -0.4228 H   0  0  0  0  0  0  0  0  0  0  0  0
   -6.9242    2.1779    1.3313 H   0  0  0  0  0  0  0  0  0  0  0  0
   -4.6838    2.8929    0.5286 H   0  0  0  0  0  0  0  0  0  0  0  0
   -0.9405    1.9052   -0.9652 H   0  0  0  0  0  0  0  0  0  0  0  0
    4.4451    0.1212    0.2096 H   0  0  0  0  0  0  0  0  0  0  0  0
  1  2  1  0  0  0  0
  2  7  1  0  0  0  0
  2  3  2  0  0  0  0
  3  4  1  0  0  0  0
  3 22  1  0  0  0  0
  4  5  1  0  0  0  0
  5  6  1  0  0  0  0
  5 23  1  0  0  0  0
  5 24  1  0  0  0  0
  6  7  2  0  0  0  0
  6 25  1  0  0  0  0
  7  8  1  0  0  0  0
  8  9  1  0  0  0  0
  9 10  2  0  0  0  0
  9 11  1  0  0  0  0
 11 12  1  0  0  0  0
 11 26  1  0  0  0  0
 12 20  2  0  0  0  0
 12 13  1  0  0  0  0
 13 14  1  0  0  0  0
 13 15  2  0  0  0  0
 15 16  1  0  0  0  0
 15 17  1  0  0  0  0
 17 18  2  0  0  0  0
 17 27  1  0  0  0  0
 18 19  1  0  0  0  0
 18 20  1  0  0  0  0
 20 21  1  0  0  0  0
M  CHG  1   1  -1
M  END
$$$$
