
 OpenBabel03202621352D

 32 32  0  0  1  0  0  0  0  0999 V2000
    6.1194    3.9822    0.3963 C   0  0  0  0  0  0  0  0  0  0  0  0
    4.8696    4.3082    0.7755 C   0  0  0  0  0  0  0  0  0  0  0  0
    3.4641    4.0000    0.0000 C   0  0  2  0  0  0  0  0  0  0  0  0
    2.4108    4.2365    1.1202 O   0  0  0  0  0  0  0  0  0  0  0  0
    3.4641    3.0000    0.0000 C   0  0  0  0  0  0  0  0  0  0  0  0
    2.3525    2.3860   -0.8227 N   0  0  0  0  0  0  0  0  0  0  0  0
    2.4132    0.9013   -0.7795 C   0  0  0  0  0  0  0  0  0  0  0  0
    1.1800    0.2350   -0.1432 C   0  0  0  0  0  0  0  0  0  0  0  0
    0.6353   -0.6783   -1.0987 O   0  0  0  0  0  0  0  0  0  0  0  0
   -0.4683   -1.3429   -0.5883 C   0  0  0  0  0  0  0  0  0  0  0  0
   -0.3587   -2.6454   -0.2973 C   0  0  0  0  0  0  0  0  0  0  0  0
   -1.5217   -3.4337    0.1955 C   0  0  0  0  0  0  0  0  0  0  0  0
   -2.6890   -2.6935    0.5667 O   0  0  0  0  0  0  0  0  0  0  0  0
   -2.7541   -1.4033    0.1155 C   0  0  0  0  0  0  0  0  0  0  0  0
   -1.7789   -0.6818   -0.4640 C   0  0  0  0  0  0  0  0  0  0  0  0
   -1.8269    0.4990   -0.9126 O   0  5  0  0  0  0  0  0  0  0  0  0
    6.3223    3.4092   -0.5035 H   0  0  0  0  0  0  0  0  0  0  0  0
    6.9726    4.2734    1.0009 H   0  0  0  0  0  0  0  0  0  0  0  0
    4.7534    4.8943    1.6901 H   0  0  0  0  0  0  0  0  0  0  0  0
    3.4641    5.0700    0.0000 H   0  0  0  0  0  0  0  0  0  0  0  0
    1.5534    4.2539    0.6577 H   0  0  0  0  0  0  0  0  0  0  0  0
    4.2986    2.5312   -0.5492 H   0  0  0  0  0  0  0  0  0  0  0  0
    3.4519    2.4123    0.9427 H   0  0  0  0  0  0  0  0  0  0  0  0
    1.4288    2.6641   -0.4879 H   0  0  0  0  0  0  0  0  0  0  0  0
    3.2961    0.5559   -0.2250 H   0  0  0  0  0  0  0  0  0  0  0  0
    2.5543    0.5492   -1.8071 H   0  0  0  0  0  0  0  0  0  0  0  0
    0.4493    0.9861    0.1720 H   0  0  0  0  0  0  0  0  0  0  0  0
    1.4915   -0.3146    0.7560 H   0  0  0  0  0  0  0  0  0  0  0  0
    0.5870   -3.1493   -0.4409 H   0  0  0  0  0  0  0  0  0  0  0  0
   -1.2157   -4.0058    1.0788 H   0  0  0  0  0  0  0  0  0  0  0  0
   -1.8171   -4.1583   -0.5720 H   0  0  0  0  0  0  0  0  0  0  0  0
   -3.7397   -0.9875    0.2886 H   0  0  0  0  0  0  0  0  0  0  0  0
  1  2  2  0  0  0  0
  1 17  1  0  0  0  0
  1 18  1  0  0  0  0
  2  3  1  0  0  0  0
  2 19  1  0  0  0  0
  3  4  1  0  0  0  0
  3  5  1  0  0  0  0
  3 20  1  6  0  0  0
  4 21  1  0  0  0  0
  5  6  1  0  0  0  0
  5 22  1  0  0  0  0
  5 23  1  0  0  0  0
  6  7  1  0  0  0  0
  6 24  1  0  0  0  0
  7  8  1  0  0  0  0
  7 25  1  0  0  0  0
  7 26  1  0  0  0  0
  8  9  1  0  0  0  0
  8 27  1  0  0  0  0
  8 28  1  0  0  0  0
  9 10  1  0  0  0  0
 10 15  1  0  0  0  0
 10 11  2  0  0  0  0
 11 12  1  0  0  0  0
 11 29  1  0  0  0  0
 12 13  1  0  0  0  0
 12 30  1  0  0  0  0
 12 31  1  0  0  0  0
 13 14  1  0  0  0  0
 14 15  2  0  0  0  0
 14 32  1  0  0  0  0
 15 16  1  0  0  0  0
M  CHG  1  16  -1
M  END
$$$$
