
 OpenBabel03202621372D

 40 41  0  0  1  0  0  0  0  0999 V2000
    1.7321   -3.0000    0.0000 C   0  0  0  0  0  0  0  0  0  0  0  0
    1.7321   -2.0000    0.0000 C   0  0  0  0  0  0  0  0  0  0  0  0
    0.8660   -1.5000    0.0000 C   0  0  1  0  0  0  0  0  0  0  0  0
    1.3660   -0.6340    0.0000 O   0  0  0  0  0  0  0  0  0  0  0  0
    2.9180   -0.0304   -0.2112 C   0  0  0  0  0  0  0  0  0  0  0  0
    4.0413   -0.8368   -0.3921 C   0  0  0  0  0  0  0  0  0  0  0  0
    5.3706   -0.5277   -0.4105 O   0  0  0  0  0  0  0  0  0  0  0  0
    5.6914    0.7881   -0.0136 C   0  0  0  0  0  0  0  0  0  0  0  0
    4.5409    1.7417    0.0338 C   0  0  0  0  0  0  0  0  0  0  0  0
    3.2428    1.3971   -0.0827 C   0  0  0  0  0  0  0  0  0  0  0  0
    2.2388    2.1658   -0.1546 O   0  5  0  0  0  0  0  0  0  0  0  0
    0.1379   -0.9789    1.6233 C   0  0  0  0  0  0  0  0  0  0  0  0
   -1.1600   -1.4524    1.8392 C   0  0  0  0  0  0  0  0  0  0  0  0
   -2.0216   -1.1601    0.8002 C   0  0  0  0  0  0  0  0  0  0  0  0
   -1.7321    0.0000    0.0000 C   0  0  0  0  0  0  0  0  0  0  0  0
   -2.5981    0.5000    0.0000 C   0  0  0  0  0  0  0  0  0  0  0  0
   -0.6137    0.7956    0.4453 C   0  0  0  0  0  0  0  0  0  0  0  0
    0.0954    0.3975    1.5772 C   0  0  0  0  0  0  0  0  0  0  0  0
    0.3660   -2.3660    0.0000 C   0  0  2  0  0  0  0  0  0  0  0  0
   -0.1048   -3.4992    1.0430 O   0  0  0  0  0  0  0  0  0  0  0  0
   -0.0012   -3.0423   -1.5597 C   0  0  0  0  0  0  0  0  0  0  0  0
   -0.2791   -3.5672   -2.5587 N   0  0  0  0  0  0  0  0  0  0  0  0
    2.0523   -3.3105    1.0795 H   0  0  0  0  0  0  0  0  0  0  0  0
    2.6847   -3.3096   -0.5524 H   0  0  0  0  0  0  0  0  0  0  0  0
    1.7321   -4.0700    0.0000 H   0  0  0  0  0  0  0  0  0  0  0  0
    2.1983   -1.8530   -1.0814 H   0  0  0  0  0  0  0  0  0  0  0  0
    2.4989   -1.7823    0.8597 H   0  0  0  0  0  0  0  0  0  0  0  0
    4.0775   -1.9083   -0.4970 H   0  0  0  0  0  0  0  0  0  0  0  0
    6.2005    0.7290    0.9632 H   0  0  0  0  0  0  0  0  0  0  0  0
    6.4439    1.1381   -0.7342 H   0  0  0  0  0  0  0  0  0  0  0  0
    4.8110    2.7818    0.1248 H   0  0  0  0  0  0  0  0  0  0  0  0
   -1.3773   -2.2604    2.5292 H   0  0  0  0  0  0  0  0  0  0  0  0
   -2.9706   -1.6938    0.7072 H   0  0  0  0  0  0  0  0  0  0  0  0
   -2.4128    1.2479   -0.8105 H   0  0  0  0  0  0  0  0  0  0  0  0
   -2.6711    0.9703    1.0272 H   0  0  0  0  0  0  0  0  0  0  0  0
   -3.5247    1.0350    0.0000 H   0  0  0  0  0  0  0  0  0  0  0  0
   -0.4543    1.8168    0.0955 H   0  0  0  0  0  0  0  0  0  0  0  0
    0.9305    1.0008    1.9154 H   0  0  0  0  0  0  0  0  0  0  0  0
   -0.6658   -2.1270   -0.2496 H   0  0  0  0  0  0  0  0  0  0  0  0
   -0.7063   -4.0661    0.5301 H   0  0  0  0  0  0  0  0  0  0  0  0
  1  2  1  0  0  0  0
  1 23  1  0  0  0  0
  1 24  1  0  0  0  0
  1 25  1  0  0  0  0
  2 26  1  0  0  0  0
  2 27  1  0  0  0  0
  3  2  1  0  0  0  0
  3  4  1  1  0  0  0
  3 12  1  0  0  0  0
  3 19  1  0  0  0  0
  4  5  1  0  0  0  0
  5 10  1  0  0  0  0
  5  6  2  0  0  0  0
  6  7  1  0  0  0  0
  6 28  1  0  0  0  0
  7  8  1  0  0  0  0
  8  9  1  0  0  0  0
  8 29  1  0  0  0  0
  8 30  1  0  0  0  0
  9 10  2  0  0  0  0
  9 31  1  0  0  0  0
 10 11  1  0  0  0  0
 12 18  2  0  0  0  0
 12 13  1  0  0  0  0
 13 14  2  0  0  0  0
 13 32  1  0  0  0  0
 14 15  1  0  0  0  0
 14 33  1  0  0  0  0
 15 16  1  0  0  0  0
 15 17  2  0  0  0  0
 16 34  1  0  0  0  0
 16 35  1  0  0  0  0
 16 36  1  0  0  0  0
 17 18  1  0  0  0  0
 17 37  1  0  0  0  0
 18 38  1  0  0  0  0
 19 20  1  0  0  0  0
 19 21  1  0  0  0  0
 19 39  1  1  0  0  0
 20 40  1  0  0  0  0
 21 22  3  0  0  0  0
M  CHG  1  11  -1
M  END
$$$$
