
 OpenBabel03202621382D

 23 23  0  0  0  0  0  0  0  0999 V2000
    0.8660    3.5000    0.0000 C   0  0  0  0  0  0  0  0  0  0  0  0
    0.0000    3.0000    0.0000 S   0  0  0  0  0  0  0  0  0  0  0  0
   -1.3010    2.0861    0.5234 C   0  0  0  0  0  0  0  0  0  0  0  0
   -2.4039    2.1305    0.0062 O   0  0  0  0  0  0  0  0  0  0  0  0
   -0.8862    1.1746    1.4716 N   0  0  0  0  0  0  0  0  0  0  0  0
   -0.3200    0.0432    0.8414 C   0  0  0  0  0  0  0  0  0  0  0  0
    1.1036    0.0026    0.7008 C   0  0  0  0  0  0  0  0  0  0  0  0
    1.7321   -1.0000    0.0000 C   0  0  0  0  0  0  0  0  0  0  0  0
    2.5981   -1.5000    0.0000 C   0  0  0  0  0  0  0  0  0  0  0  0
    0.7523   -1.9238   -0.5791 C   0  0  0  0  0  0  0  0  0  0  0  0
   -0.6340   -1.9202   -0.4088 C   0  0  0  0  0  0  0  0  0  0  0  0
   -1.5823   -3.2396   -0.9665 Cl  0  0  0  0  0  0  0  0  0  0  0  0
   -1.1876   -0.8975    0.3034 C   0  0  0  0  0  0  0  0  0  0  0  0
    1.2352    3.2318    1.0082 H   0  0  0  0  0  0  0  0  0  0  0  0
    0.4700    4.5324    0.0421 H   0  0  0  0  0  0  0  0  0  0  0  0
    1.7926    4.0350    0.0000 H   0  0  0  0  0  0  0  0  0  0  0  0
   -0.1780    1.6391    2.0171 H   0  0  0  0  0  0  0  0  0  0  0  0
    1.7089    0.7389    1.2300 H   0  0  0  0  0  0  0  0  0  0  0  0
    3.0328   -1.0706   -0.9375 H   0  0  0  0  0  0  0  0  0  0  0  0
    3.1265   -1.0054    0.8510 H   0  0  0  0  0  0  0  0  0  0  0  0
    3.5247   -2.0350    0.0000 H   0  0  0  0  0  0  0  0  0  0  0  0
    1.1373   -2.8266   -1.0850 H   0  0  0  0  0  0  0  0  0  0  0  0
   -2.2649   -0.8346    0.4437 H   0  0  0  0  0  0  0  0  0  0  0  0
  1  2  1  0  0  0  0
  1 14  1  0  0  0  0
  1 15  1  0  0  0  0
  1 16  1  0  0  0  0
  2  3  1  0  0  0  0
  3  4  2  0  0  0  0
  3  5  1  0  0  0  0
  5  6  1  0  0  0  0
  5 17  1  0  0  0  0
  6 13  2  0  0  0  0
  6  7  1  0  0  0  0
  7  8  2  0  0  0  0
  7 18  1  0  0  0  0
  8  9  1  0  0  0  0
  8 10  1  0  0  0  0
  9 19  1  0  0  0  0
  9 20  1  0  0  0  0
  9 21  1  0  0  0  0
 10 11  2  0  0  0  0
 10 22  1  0  0  0  0
 11 12  1  0  0  0  0
 11 13  1  0  0  0  0
 13 23  1  0  0  0  0
M  END
$$$$
