
 OpenBabel03202621352D

 19 18  0  0  0  0  0  0  0  0999 V2000
    4.3301   -1.5000    0.0000 C   0  0  0  0  0  0  0  0  0  0  0  0
    4.3301   -0.5000    0.0000 N   0  0  0  0  0  0  0  0  0  0  0  0
    4.1102    0.3185    1.0917 C   0  0  0  0  0  0  0  0  0  0  0  0
    4.8000    1.3329    1.3163 O   0  0  0  0  0  0  0  0  0  0  0  0
    2.8179    0.0147    1.7367 C   0  0  0  0  0  0  0  0  0  0  0  0
    1.7421    0.7810    1.0104 C   0  0  0  0  0  0  0  0  0  0  0  0
    0.8660   -0.5000    0.0000 S   0  0  0  0  0  0  0  0  0  0  0  0
    0.0000    0.0000    0.0000 C   0  0  0  0  0  0  0  0  0  0  0  0
    3.8974   -1.6325   -1.0133 H   0  0  0  0  0  0  0  0  0  0  0  0
    5.4308   -1.6667   -0.0457 H   0  0  0  0  0  0  0  0  0  0  0  0
    4.3301   -2.5700    0.0000 H   0  0  0  0  0  0  0  0  0  0  0  0
    5.0021   -0.0131   -0.5956 H   0  0  0  0  0  0  0  0  0  0  0  0
    2.6529   -1.0540    1.5913 H   0  0  0  0  0  0  0  0  0  0  0  0
    2.8276    0.1489    2.8114 H   0  0  0  0  0  0  0  0  0  0  0  0
    2.0686    1.6134    0.3557 H   0  0  0  0  0  0  0  0  0  0  0  0
    1.0590    1.2250    1.7533 H   0  0  0  0  0  0  0  0  0  0  0  0
   -0.0390    0.2805   -1.0713 H   0  0  0  0  0  0  0  0  0  0  0  0
   -0.6900   -0.8525    0.1495 H   0  0  0  0  0  0  0  0  0  0  0  0
   -0.9266    0.5350    0.0000 H   0  0  0  0  0  0  0  0  0  0  0  0
  1  2  1  0  0  0  0
  1  9  1  0  0  0  0
  1 10  1  0  0  0  0
  1 11  1  0  0  0  0
  2  3  1  0  0  0  0
  2 12  1  0  0  0  0
  3  4  2  0  0  0  0
  3  5  1  0  0  0  0
  5  6  1  0  0  0  0
  5 13  1  0  0  0  0
  5 14  1  0  0  0  0
  6  7  1  0  0  0  0
  6 15  1  0  0  0  0
  6 16  1  0  0  0  0
  7  8  1  0  0  0  0
  8 17  1  0  0  0  0
  8 18  1  0  0  0  0
  8 19  1  0  0  0  0
M  END
$$$$
