
 OpenBabel03202621282D

 30 31  0  0  1  0  0  0  0  0999 V2000
    1.7683    6.5677    0.0000 C   0  0  0  0  0  0  0  0  0  0  0  0
    0.9293    6.0833    0.0000 C   0  0  0  0  0  0  0  0  0  0  0  0
    0.0903    6.5677    0.0000 O   0  0  0  0  0  0  0  0  0  0  0  0
    0.9293    5.1146    0.0000 C   0  0  0  0  0  0  0  0  0  0  0  0
    0.0903    4.6302    0.0000 C   0  0  0  0  0  0  0  0  0  0  0  0
   -0.7486    5.1146    0.0000 O   0  0  0  0  0  0  0  0  0  0  0  0
    0.0903    3.6615    0.0000 C   0  0  2  0  0  0  0  0  0  0  0  0
    0.9293    3.1771    0.0000 O   0  0  0  0  0  0  0  0  0  0  0  0
   -0.7486    3.1771    0.0000 C   0  0  0  0  0  0  0  0  0  0  0  0
   -1.5876    3.6615    0.0000 O   0  0  0  0  0  0  0  0  0  0  0  0
   -0.7486    2.2083    0.0000 C   0  0  2  0  0  0  0  0  0  0  0  0
   -1.5876    1.7240    0.0000 C   0  0  0  0  0  0  0  0  0  0  0  0
   -2.4265    2.2083    0.0000 C   0  0  0  0  0  0  0  0  0  0  0  0
   -2.4265    3.1771    0.0000 O   0  0  0  0  0  0  0  0  0  0  0  0
    0.0903    1.7240    0.0000 C   0  0  3  0  0  0  0  0  0  0  0  0
    0.5747    2.5629    0.0000 O   0  0  0  0  0  0  0  0  0  0  0  0
    1.7683    0.7552    0.0000 C   0  0  0  0  0  0  0  0  0  0  0  0
    1.7683   -0.2135    0.0000 C   0  0  0  0  0  0  0  0  0  0  0  0
    2.6072   -0.6979    0.0000 C   0  0  0  0  0  0  0  0  0  0  0  0
    3.4462   -0.2135    0.0000 C   0  0  0  0  0  0  0  0  0  0  0  0
    3.4462    0.7552    0.0000 C   0  0  0  0  0  0  0  0  0  0  0  0
    2.6072    1.2396    0.0000 C   0  0  0  0  0  0  0  0  0  0  0  0
    2.6072    2.2083    0.0000 O   0  0  0  0  0  0  0  0  0  0  0  0
   -0.3940    0.8850    0.0000 C   0  0  2  0  0  0  0  0  0  0  0  0
   -1.3575    0.7837    0.0000 O   0  0  0  0  0  0  0  0  0  0  0  0
   -1.5589   -0.1638    0.0000 C   0  0  0  0  0  0  0  0  0  0  0  0
   -2.4439   -0.5579    0.0000 O   0  0  0  0  0  0  0  0  0  0  0  0
   -0.7199   -0.6482    0.0000 O   0  0  0  0  0  0  0  0  0  0  0  0
   -0.0000   -0.0000    0.0000 C   0  0  1  0  0  0  0  0  0  0  0  0
    0.9476   -0.2014    0.0000 Cl  0  0  0  0  0  0  0  0  0  0  0  0
  1  2  1  0  0  0  0
  2  3  2  0  0  0  0
  2  4  1  0  0  0  0
  4  5  1  0  0  0  0
  5  6  2  0  0  0  0
  5  7  1  0  0  0  0
  7  8  1  6  0  0  0
  7  9  1  0  0  0  0
  9 10  2  0  0  0  0
  9 11  1  0  0  0  0
 11 12  1  1  0  0  0
 11 15  1  0  0  0  0
 12 13  1  0  0  0  0
 13 14  1  0  0  0  0
 15 16  1  0  0  0  0
 15 17  1  0  0  0  0
 17 22  2  0  0  0  0
 17 18  1  0  0  0  0
 18 19  2  0  0  0  0
 19 20  1  0  0  0  0
 20 21  2  0  0  0  0
 21 22  1  0  0  0  0
 22 23  1  0  0  0  0
 24 15  1  1  0  0  0
 24 25  1  0  0  0  0
 24 29  1  0  0  0  0
 25 26  1  0  0  0  0
 26 27  2  0  0  0  0
 26 28  1  0  0  0  0
 28 29  1  0  0  0  0
 29 30  1  6  0  0  0
M  END
$$$$
