
 OpenBabel03202621302D

 27 28  0  0  0  0  0  0  0  0999 V2000
    2.5981    2.5000    0.0000 C   0  0  0  0  0  0  0  0  0  0  0  0
    2.5981    1.5000    0.0000 S   0  0  0  0  0  0  0  0  0  0  0  0
    0.9794    0.8974   -0.1865 C   0  0  0  0  0  0  0  0  0  0  0  0
    0.0363    1.6487   -0.3697 O   0  0  0  0  0  0  0  0  0  0  0  0
    0.9909   -0.4659   -0.0750 N   0  0  0  0  0  0  0  0  0  0  0  0
   -0.1285   -1.3125   -0.0517 C   0  0  0  0  0  0  0  0  0  0  0  0
    0.0838   -2.6928   -0.0252 C   0  0  0  0  0  0  0  0  0  0  0  0
   -1.0039   -3.5788    0.0004 C   0  0  0  0  0  0  0  0  0  0  0  0
   -2.3171   -3.0959    0.0033 C   0  0  0  0  0  0  0  0  0  0  0  0
   -3.4679   -3.9960    0.0131 C   0  0  0  0  0  0  0  0  0  0  0  0
   -3.6388   -5.3678    0.0197 C   0  0  0  0  0  0  0  0  0  0  0  0
   -5.0374   -5.6042    0.0134 C   0  0  0  0  0  0  0  0  0  0  0  0
   -5.6363   -4.3694    0.0061 C   0  0  0  0  0  0  0  0  0  0  0  0
   -4.6971   -3.3942    0.0076 O   0  0  0  0  0  0  0  0  0  0  0  0
   -2.5158   -1.7129   -0.0094 C   0  0  0  0  0  0  0  0  0  0  0  0
   -1.4356   -0.8303   -0.0375 C   0  0  0  0  0  0  0  0  0  0  0  0
    3.6885    2.6696    0.0881 H   0  0  0  0  0  0  0  0  0  0  0  0
    2.1635    2.6936    1.0040 H   0  0  0  0  0  0  0  0  0  0  0  0
    2.5981    3.5700    0.0000 H   0  0  0  0  0  0  0  0  0  0  0  0
    1.9088   -0.8818   -0.0004 H   0  0  0  0  0  0  0  0  0  0  0  0
    1.0912   -3.1040   -0.0245 H   0  0  0  0  0  0  0  0  0  0  0  0
   -0.8059   -4.6472    0.0142 H   0  0  0  0  0  0  0  0  0  0  0  0
   -2.8535   -6.1101    0.0231 H   0  0  0  0  0  0  0  0  0  0  0  0
   -5.5451   -6.5581    0.0121 H   0  0  0  0  0  0  0  0  0  0  0  0
   -6.6624   -4.0282   -0.0005 H   0  0  0  0  0  0  0  0  0  0  0  0
   -3.5191   -1.2914    0.0014 H   0  0  0  0  0  0  0  0  0  0  0  0
   -1.6639    0.2301   -0.0355 H   0  0  0  0  0  0  0  0  0  0  0  0
  1  2  1  0  0  0  0
  1 17  1  0  0  0  0
  1 18  1  0  0  0  0
  1 19  1  0  0  0  0
  2  3  1  0  0  0  0
  3  4  2  0  0  0  0
  3  5  1  0  0  0  0
  5  6  1  0  0  0  0
  5 20  1  0  0  0  0
  6 16  2  0  0  0  0
  6  7  1  0  0  0  0
  7  8  2  0  0  0  0
  7 21  1  0  0  0  0
  8  9  1  0  0  0  0
  8 22  1  0  0  0  0
  9 10  1  0  0  0  0
  9 15  2  0  0  0  0
 10 14  1  0  0  0  0
 10 11  2  0  0  0  0
 11 12  1  0  0  0  0
 11 23  1  0  0  0  0
 12 13  2  0  0  0  0
 12 24  1  0  0  0  0
 13 14  1  0  0  0  0
 13 25  1  0  0  0  0
 15 16  1  0  0  0  0
 15 26  1  0  0  0  0
 16 27  1  0  0  0  0
M  END
$$$$
