
 OpenBabel03202621302D

 11 10  0  0  0  0  0  0  0  0999 V2000
    2.5981   -1.5000    0.0000 C   0  0  0  0  0  0  0  0  0  0  0  0
    2.5981   -0.5000    0.0000 S   0  0  0  0  0  0  0  0  0  0  0  0
    1.0154    0.2390    0.1637 C   0  0  0  0  0  0  0  0  0  0  0  0
    0.9432    1.4560    0.2723 O   0  0  0  0  0  0  0  0  0  0  0  0
   -0.1777   -0.6976    0.1092 C   0  0  0  0  0  0  0  0  0  0  0  0
   -1.6787    0.1355    0.5653 Cl  0  0  0  0  0  0  0  0  0  0  0  0
    2.5150   -1.6787   -1.0906 H   0  0  0  0  0  0  0  0  0  0  0  0
    3.6512   -1.6715    0.2930 H   0  0  0  0  0  0  0  0  0  0  0  0
    2.5981   -2.5700    0.0000 H   0  0  0  0  0  0  0  0  0  0  0  0
   -0.0480   -1.5269    0.8094 H   0  0  0  0  0  0  0  0  0  0  0  0
   -0.3001   -1.0773   -0.9087 H   0  0  0  0  0  0  0  0  0  0  0  0
  1  2  1  0  0  0  0
  1  7  1  0  0  0  0
  1  8  1  0  0  0  0
  1  9  1  0  0  0  0
  2  3  1  0  0  0  0
  3  4  2  0  0  0  0
  3  5  1  0  0  0  0
  5  6  1  0  0  0  0
  5 10  1  0  0  0  0
  5 11  1  0  0  0  0
M  END
$$$$
