
 OpenBabel03202621342D

 17 17  0  0  1  0  0  0  0  0999 V2000
    2.2953   -1.9260    0.0000 C   0  0  0  0  0  0  0  0  0  0  0  0
    2.5032   -0.9479    0.0000 S   0  0  0  0  0  0  0  0  0  0  0  0
    1.7601   -0.2788    0.0000 C   0  0  1  0  0  0  0  0  0  0  0  0
    1.9680    0.6994    0.0000 C   0  0  0  0  0  0  0  0  0  0  0  0
    0.2484   -0.6780   -0.0000 C   0  0  0  0  0  0  0  0  0  0  0  0
   -0.3900   -1.9344   -0.0000 C   0  0  0  0  0  0  0  0  0  0  0  0
   -2.0867   -1.7405   -0.0000 S   0  0  0  0  0  0  0  0  0  0  0  0
   -1.9859   -0.0896   -0.0000 N   0  0  0  0  0  0  0  0  0  0  0  0
   -0.7420    0.3502   -0.0000 N   0  0  0  0  0  0  0  0  0  0  0  0
    3.0219   -2.8178   -0.0000 H   0  0  0  0  0  0  0  0  0  0  0  0
    3.4354   -1.8745    0.0000 H   0  0  0  0  0  0  0  0  0  0  0  0
    2.0728   -2.9726    0.0000 H   0  0  0  0  0  0  0  0  0  0  0  0
    2.8271   -0.1408   -0.0000 H   0  0  0  0  0  0  0  0  0  0  0  0
    3.1143    1.2458    0.0000 H   0  0  0  0  0  0  0  0  0  0  0  0
    1.0446    1.3171    0.0000 H   0  0  0  0  0  0  0  0  0  0  0  0
    2.1904    1.7460    0.0000 H   0  0  0  0  0  0  0  0  0  0  0  0
    0.0073   -2.9367    0.0000 H   0  0  0  0  0  0  0  0  0  0  0  0
  1  2  1  0  0  0  0
  1 10  1  0  0  0  0
  1 11  1  0  0  0  0
  1 12  1  0  0  0  0
  2  3  1  0  0  0  0
  3  4  1  0  0  0  0
  3  5  1  0  0  0  0
  3 13  1  1  0  0  0
  4 14  1  0  0  0  0
  4 15  1  0  0  0  0
  4 16  1  0  0  0  0
  5  9  1  0  0  0  0
  5  6  2  0  0  0  0
  6  7  1  0  0  0  0
  6 17  1  0  0  0  0
  7  8  1  0  0  0  0
  8  9  2  0  0  0  0
M  END
$$$$
