
 OpenBabel03202621382D

 41 40  0  0  0  0  0  0  0  0999 V2000
    9.5263    0.5000    0.0000 C   0  0  0  0  0  0  0  0  0  0  0  0
    9.5263    1.5000    0.0000 C   0  0  0  0  0  0  0  0  0  0  0  0
    9.0990    2.1696   -1.3265 C   0  0  0  0  0  0  0  0  0  0  0  0
    7.5911    2.2690   -1.5082 C   0  0  0  0  0  0  0  0  0  0  0  0
    6.9522    3.1624   -0.4458 C   0  0  0  0  0  0  0  0  0  0  0  0
    6.3831    2.3894    0.7546 C   0  0  0  0  0  0  0  0  0  0  0  0
    5.1564    3.1268    1.2974 C   0  0  0  0  0  0  0  0  0  0  0  0
    4.0004    2.8317    0.3532 C   0  0  0  0  0  0  0  0  0  0  0  0
    2.9558    3.9271    0.2439 C   0  0  0  0  0  0  0  0  0  0  0  0
    1.8794    3.4326   -0.7237 C   0  0  0  0  0  0  0  0  0  0  0  0
    0.5248    3.3316   -0.0588 C   0  0  0  0  0  0  0  0  0  0  0  0
    0.2802    2.0420    0.7100 C   0  0  0  0  0  0  0  0  0  0  0  0
   -0.4843    2.0204    1.6601 O   0  0  0  0  0  0  0  0  0  0  0  0
    0.8660    0.5000    0.0000 S   0  0  0  0  0  0  0  0  0  0  0  0
    0.0000    0.0000    0.0000 C   0  0  0  0  0  0  0  0  0  0  0  0
    8.4451    0.3123    0.2043 H   0  0  0  0  0  0  0  0  0  0  0  0
   10.0743    0.3110    0.9583 H   0  0  0  0  0  0  0  0  0  0  0  0
    9.5263   -0.5700    0.0000 H   0  0  0  0  0  0  0  0  0  0  0  0
   10.5557    1.9064    0.0788 H   0  0  0  0  0  0  0  0  0  0  0  0
    9.0632    2.0639    0.8240 H   0  0  0  0  0  0  0  0  0  0  0  0
    9.5416    1.6470   -2.1851 H   0  0  0  0  0  0  0  0  0  0  0  0
    9.5204    3.1876   -1.3546 H   0  0  0  0  0  0  0  0  0  0  0  0
    7.4130    2.7280   -2.4940 H   0  0  0  0  0  0  0  0  0  0  0  0
    7.1270    1.2830   -1.5464 H   0  0  0  0  0  0  0  0  0  0  0  0
    6.1659    3.7415   -0.9472 H   0  0  0  0  0  0  0  0  0  0  0  0
    7.6619    3.9138   -0.0763 H   0  0  0  0  0  0  0  0  0  0  0  0
    7.1171    2.2935    1.5501 H   0  0  0  0  0  0  0  0  0  0  0  0
    6.0881    1.3693    0.4665 H   0  0  0  0  0  0  0  0  0  0  0  0
    5.3648    4.1982    1.3869 H   0  0  0  0  0  0  0  0  0  0  0  0
    4.9133    2.7555    2.2989 H   0  0  0  0  0  0  0  0  0  0  0  0
    4.3677    2.6464   -0.6650 H   0  0  0  0  0  0  0  0  0  0  0  0
    3.5356    1.8996    0.6765 H   0  0  0  0  0  0  0  0  0  0  0  0
    3.4119    4.8374   -0.1717 H   0  0  0  0  0  0  0  0  0  0  0  0
    2.5628    4.1894    1.2322 H   0  0  0  0  0  0  0  0  0  0  0  0
    1.8181    4.1143   -1.5809 H   0  0  0  0  0  0  0  0  0  0  0  0
    2.1712    2.4735   -1.1615 H   0  0  0  0  0  0  0  0  0  0  0  0
   -0.2573    3.4091   -0.8192 H   0  0  0  0  0  0  0  0  0  0  0  0
    0.3763    4.1664    0.6207 H   0  0  0  0  0  0  0  0  0  0  0  0
   -0.1771   -0.0429   -1.0932 H   0  0  0  0  0  0  0  0  0  0  0  0
    0.3733   -0.9906    0.3233 H   0  0  0  0  0  0  0  0  0  0  0  0
   -0.9266   -0.5350    0.0000 H   0  0  0  0  0  0  0  0  0  0  0  0
  1  2  1  0  0  0  0
  1 16  1  0  0  0  0
  1 17  1  0  0  0  0
  1 18  1  0  0  0  0
  2  3  1  0  0  0  0
  2 19  1  0  0  0  0
  2 20  1  0  0  0  0
  3  4  1  0  0  0  0
  3 21  1  0  0  0  0
  3 22  1  0  0  0  0
  4  5  1  0  0  0  0
  4 23  1  0  0  0  0
  4 24  1  0  0  0  0
  5  6  1  0  0  0  0
  5 25  1  0  0  0  0
  5 26  1  0  0  0  0
  6  7  1  0  0  0  0
  6 27  1  0  0  0  0
  6 28  1  0  0  0  0
  7  8  1  0  0  0  0
  7 29  1  0  0  0  0
  7 30  1  0  0  0  0
  8  9  1  0  0  0  0
  8 31  1  0  0  0  0
  8 32  1  0  0  0  0
  9 10  1  0  0  0  0
  9 33  1  0  0  0  0
  9 34  1  0  0  0  0
 10 11  1  0  0  0  0
 10 35  1  0  0  0  0
 10 36  1  0  0  0  0
 11 12  1  0  0  0  0
 11 37  1  0  0  0  0
 11 38  1  0  0  0  0
 12 13  2  0  0  0  0
 12 14  1  0  0  0  0
 14 15  1  0  0  0  0
 15 39  1  0  0  0  0
 15 40  1  0  0  0  0
 15 41  1  0  0  0  0
M  END
$$$$
