
 OpenBabel03202621282D

 18 19  0  0  0  0  0  0  0  0999 V2000
    1.4680   -2.2382    0.0000 C   0  0  0  0  0  0  0  0  0  0  0  0
    1.2601   -1.2601    0.0000 O   0  0  0  0  0  0  0  0  0  0  0  0
    0.3090   -0.9511    0.0000 C   0  0  0  0  0  0  0  0  0  0  0  0
   -0.5000   -1.5388    0.0000 C   0  0  0  0  0  0  0  0  0  0  0  0
   -0.5000   -2.5388    0.0000 O   0  0  0  0  0  0  0  0  0  0  0  0
   -1.3660   -3.0388    0.0000 C   0  0  0  0  0  0  0  0  0  0  0  0
   -1.3090   -0.9511    0.0000 C   0  0  0  0  0  0  0  0  0  0  0  0
   -2.2601   -1.2601    0.0000 C   0  0  0  0  0  0  0  0  0  0  0  0
   -3.0032   -0.5909    0.0000 C   0  0  0  0  0  0  0  0  0  0  0  0
   -3.9543   -0.9000    0.0000 N   0  0  0  0  0  0  0  0  0  0  0  0
   -4.2633   -1.8510    0.0000 C   0  0  0  0  0  0  0  0  0  0  0  0
   -5.2633   -1.8510    0.0000 C   0  0  0  0  0  0  0  0  0  0  0  0
   -5.8511   -2.6600    0.0000 C   0  0  0  0  0  0  0  0  0  0  0  0
   -5.5723   -0.9000    0.0000 N   0  0  0  0  0  0  0  0  0  0  0  0
   -4.7633   -0.3122    0.0000 N   0  0  0  0  0  0  0  0  0  0  0  0
   -1.0000    0.0000    0.0000 O   0  0  0  0  0  0  0  0  0  0  0  0
   -0.0000   -0.0000    0.0000 C   0  0  0  0  0  0  0  0  0  0  0  0
    0.5878    0.8090    0.0000 O   0  0  0  0  0  0  0  0  0  0  0  0
  1  2  1  0  0  0  0
  2  3  1  0  0  0  0
  3 17  1  0  0  0  0
  3  4  2  0  0  0  0
  4  5  1  0  0  0  0
  4  7  1  0  0  0  0
  5  6  1  0  0  0  0
  7  8  2  3  0  0  0
  7 16  1  0  0  0  0
  8  9  1  0  0  0  0
  9 10  1  0  0  0  0
 10 15  1  0  0  0  0
 10 11  1  0  0  0  0
 11 12  2  0  0  0  0
 12 13  1  0  0  0  0
 12 14  1  0  0  0  0
 14 15  2  0  0  0  0
 16 17  1  0  0  0  0
 17 18  2  0  0  0  0
M  END
$$$$
