
 OpenBabel03202621332D

 29 28  0  0  1  0  0  0  0  0999 V2000
    7.7942   -1.5000    0.0000 C   0  0  0  0  0  0  0  0  0  0  0  0
    7.7942   -0.5000    0.0000 C   0  0  0  0  0  0  0  0  0  0  0  0
    7.2854   -0.0110   -1.7175 S   0  0  0  0  0  0  0  0  0  0  0  0
    5.5767   -0.5102   -1.4344 C   0  0  0  0  0  0  0  0  0  0  0  0
    5.1962    0.0000    0.0000 C   0  0  2  0  0  0  0  0  0  0  0  0
    5.1962    1.0000    0.0000 C   0  0  0  0  0  0  0  0  0  0  0  0
    3.8320   -0.6563    0.2306 N   0  0  0  0  0  0  0  0  0  0  0  0
    2.6326    0.0286   -0.2749 C   0  0  0  0  0  0  0  0  0  0  0  0
    1.4309   -0.9114   -0.1118 C   0  0  0  0  0  0  0  0  0  0  0  0
   -0.1164   -0.1190   -0.6338 S   0  0  0  0  0  0  0  0  0  0  0  0
   -1.2022   -1.4719   -0.3544 C   0  0  0  0  0  0  0  0  0  0  0  0
   -2.4140   -1.3517   -0.4474 O   0  0  0  0  0  0  0  0  0  0  0  0
    8.7164   -1.7300   -0.6050 H   0  0  0  0  0  0  0  0  0  0  0  0
    8.0987   -1.6804    1.0623 H   0  0  0  0  0  0  0  0  0  0  0  0
    7.7942   -2.5700    0.0000 H   0  0  0  0  0  0  0  0  0  0  0  0
    8.7903   -0.0082    0.0228 H   0  0  0  0  0  0  0  0  0  0  0  0
    7.4163    0.0832    0.8444 H   0  0  0  0  0  0  0  0  0  0  0  0
    5.5105   -1.6023   -1.5112 H   0  0  0  0  0  0  0  0  0  0  0  0
    4.9393   -0.0905   -2.2234 H   0  0  0  0  0  0  0  0  0  0  0  0
    5.6794   -0.5837    0.7873 H   0  0  0  0  0  0  0  0  0  0  0  0
    6.2392    1.2783    0.2226 H   0  0  0  0  0  0  0  0  0  0  0  0
    4.6985    1.2087    0.9858 H   0  0  0  0  0  0  0  0  0  0  0  0
    5.1962    2.0700    0.0000 H   0  0  0  0  0  0  0  0  0  0  0  0
    3.8626   -1.6263   -0.0908 H   0  0  0  0  0  0  0  0  0  0  0  0
    2.7551    0.2989   -1.3289 H   0  0  0  0  0  0  0  0  0  0  0  0
    2.4652    0.9415    0.3071 H   0  0  0  0  0  0  0  0  0  0  0  0
    1.5815   -1.8112   -0.7185 H   0  0  0  0  0  0  0  0  0  0  0  0
    1.3291   -1.2211    0.9328 H   0  0  0  0  0  0  0  0  0  0  0  0
   -0.7418   -2.4409   -0.0955 H   0  0  0  0  0  0  0  0  0  0  0  0
  1  2  1  0  0  0  0
  1 13  1  0  0  0  0
  1 14  1  0  0  0  0
  1 15  1  0  0  0  0
  2  3  1  0  0  0  0
  2 16  1  0  0  0  0
  2 17  1  0  0  0  0
  3  4  1  0  0  0  0
  4  5  1  0  0  0  0
  4 18  1  0  0  0  0
  4 19  1  0  0  0  0
  5  6  1  0  0  0  0
  5  7  1  0  0  0  0
  5 20  1  6  0  0  0
  6 21  1  0  0  0  0
  6 22  1  0  0  0  0
  6 23  1  0  0  0  0
  7  8  1  0  0  0  0
  7 24  1  0  0  0  0
  8  9  1  0  0  0  0
  8 25  1  0  0  0  0
  8 26  1  0  0  0  0
  9 10  1  0  0  0  0
  9 27  1  0  0  0  0
  9 28  1  0  0  0  0
 10 11  1  0  0  0  0
 11 12  2  0  0  0  0
 11 29  1  0  0  0  0
M  END
$$$$
