
 OpenBabel03202621392D

 19 19  0  0  0  0  0  0  0  0999 V2000
    3.7427   -0.2040   -0.0000 C   0  0  0  0  0  0  0  0  0  0  0  0
    2.5062    0.3065    0.0000 C   0  0  0  0  0  0  0  0  0  0  0  0
    1.2533   -0.4659   -0.0000 C   0  0  0  0  0  0  0  0  0  0  0  0
    1.2079   -1.8626    0.0000 C   0  0  0  0  0  0  0  0  0  0  0  0
   -0.0150   -2.5301   -0.0000 C   0  0  0  0  0  0  0  0  0  0  0  0
   -1.2127   -1.8103    0.0000 C   0  0  0  0  0  0  0  0  0  0  0  0
   -1.2075   -0.4153   -0.0000 C   0  0  0  0  0  0  0  0  0  0  0  0
   -2.6271    0.6613   -0.0000 S   0  0  0  0  0  0  0  0  0  0  0  0
   -4.0857   -0.2976   -0.0000 C   0  0  0  0  0  0  0  0  0  0  0  0
   -4.1502   -1.5194    0.0000 O   0  0  0  0  0  0  0  0  0  0  0  0
    0.0386    0.2384   -0.0000 C   0  0  0  0  0  0  0  0  0  0  0  0
    3.9432   -1.2684   -0.0000 H   0  0  0  0  0  0  0  0  0  0  0  0
    4.6060    0.4539   -0.0000 H   0  0  0  0  0  0  0  0  0  0  0  0
    2.4027    1.3912    0.0000 H   0  0  0  0  0  0  0  0  0  0  0  0
    2.1135   -2.4605   -0.0000 H   0  0  0  0  0  0  0  0  0  0  0  0
   -0.0395   -3.6182    0.0000 H   0  0  0  0  0  0  0  0  0  0  0  0
   -2.1297   -2.3869    0.0000 H   0  0  0  0  0  0  0  0  0  0  0  0
   -5.0055    0.3081    0.0000 H   0  0  0  0  0  0  0  0  0  0  0  0
    0.0638    1.3278   -0.0000 H   0  0  0  0  0  0  0  0  0  0  0  0
  1  2  2  0  0  0  0
  1 12  1  0  0  0  0
  1 13  1  0  0  0  0
  2  3  1  0  0  0  0
  2 14  1  0  0  0  0
  3 11  2  0  0  0  0
  3  4  1  0  0  0  0
  4  5  2  0  0  0  0
  4 15  1  0  0  0  0
  5  6  1  0  0  0  0
  5 16  1  0  0  0  0
  6  7  2  0  0  0  0
  6 17  1  0  0  0  0
  7  8  1  0  0  0  0
  7 11  1  0  0  0  0
  8  9  1  0  0  0  0
  9 10  2  0  0  0  0
  9 18  1  0  0  0  0
 11 19  1  0  0  0  0
M  END
$$$$
