
 OpenBabel03202621352D

 24 24  0  0  1  0  0  0  0  0999 V2000
   -1.6730   -1.4483    0.0000 C   0  0  0  0  0  0  0  0  0  0  0  0
   -0.7071   -1.7071    0.0000 C   0  0  0  0  0  0  0  0  0  0  0  0
    0.0805   -0.6301   -0.7081 N   0  0  0  0  0  0  0  0  0  0  0  0
    0.0812    0.6779   -0.0281 C   0  0  0  0  0  0  0  0  0  0  0  0
    1.5973    0.6537    0.0581 C   0  0  0  0  0  0  0  0  0  0  0  0
    1.5667   -0.6884   -0.7050 C   0  0  2  0  0  0  0  0  0  0  0  0
    2.3061   -1.8218    0.0071 C   0  0  0  0  0  0  0  0  0  0  0  0
    3.7476   -1.7630   -0.2557 N   0  0  0  0  0  0  0  0  0  0  0  0
    4.5650   -0.6698   -0.2201 C   0  0  0  0  0  0  0  0  0  0  0  0
    5.7768   -0.7594   -0.1016 O   0  0  0  0  0  0  0  0  0  0  0  0
   -1.7344   -0.8753    0.9600 H   0  0  0  0  0  0  0  0  0  0  0  0
   -2.1262   -2.4469    0.2261 H   0  0  0  0  0  0  0  0  0  0  0  0
   -2.7065   -1.1714    0.0000 H   0  0  0  0  0  0  0  0  0  0  0  0
   -0.4460   -2.5799   -0.6237 H   0  0  0  0  0  0  0  0  0  0  0  0
   -0.1889   -1.9409    0.9473 H   0  0  0  0  0  0  0  0  0  0  0  0
   -0.3953    0.7476    0.9552 H   0  0  0  0  0  0  0  0  0  0  0  0
   -0.3087    1.4874   -0.6543 H   0  0  0  0  0  0  0  0  0  0  0  0
    2.0935    1.4780   -0.4645 H   0  0  0  0  0  0  0  0  0  0  0  0
    1.9758    0.6090    1.0855 H   0  0  0  0  0  0  0  0  0  0  0  0
    1.9426   -0.5884   -1.7338 H   0  0  0  0  0  0  0  0  0  0  0  0
    1.9828   -2.7962   -0.3736 H   0  0  0  0  0  0  0  0  0  0  0  0
    2.1645   -1.8016    1.0929 H   0  0  0  0  0  0  0  0  0  0  0  0
    4.2741   -2.6092   -0.0655 H   0  0  0  0  0  0  0  0  0  0  0  0
    4.0638    0.2955   -0.3614 H   0  0  0  0  0  0  0  0  0  0  0  0
  1  2  1  0  0  0  0
  1 11  1  0  0  0  0
  1 12  1  0  0  0  0
  1 13  1  0  0  0  0
  2  3  1  0  0  0  0
  2 14  1  0  0  0  0
  2 15  1  0  0  0  0
  3  6  1  0  0  0  0
  3  4  1  0  0  0  0
  4  5  1  0  0  0  0
  4 16  1  0  0  0  0
  4 17  1  0  0  0  0
  5  6  1  0  0  0  0
  5 18  1  0  0  0  0
  5 19  1  0  0  0  0
  6  7  1  0  0  0  0
  6 20  1  1  0  0  0
  7  8  1  0  0  0  0
  7 21  1  0  0  0  0
  7 22  1  0  0  0  0
  8  9  1  0  0  0  0
  8 23  1  0  0  0  0
  9 10  2  0  0  0  0
  9 24  1  0  0  0  0
M  END
$$$$
