
 OpenBabel03202621292D

 30 30  0  0  1  0  0  0  0  0999 V2000
    2.5981   -1.5000    0.0000 C   0  0  0  0  0  0  0  0  0  0  0  0
    2.5981   -0.5000    0.0000 C   0  0  0  0  0  0  0  0  0  0  0  0
    1.8270    0.4025   -0.9157 O   0  0  0  0  0  0  0  0  0  0  0  0
    0.5140    0.1028   -0.5770 C   0  0  1  0  0  0  0  0  0  0  0  0
    0.1274   -1.1580   -1.2883 C   0  0  0  0  0  0  0  0  0  0  0  0
    0.0000   -2.0000    0.0000 C   0  0  0  0  0  0  0  0  0  0  0  0
   -0.5000   -2.8660    0.0000 C   0  0  0  0  0  0  0  0  0  0  0  0
    0.5000   -2.8660    0.0000 C   0  0  0  0  0  0  0  0  0  0  0  0
   -1.0563   -1.1327    0.8307 N   0  0  0  0  0  0  0  0  0  0  0  0
   -1.4118    0.0736    0.4536 C   0  0  0  0  0  0  0  0  0  0  0  0
   -2.8304    0.8040    1.1355 S   0  0  0  0  0  0  0  0  0  0  0  0
   -3.9470   -0.4280    0.5512 C   0  0  0  0  0  0  0  0  0  0  0  0
   -5.1536   -0.2066    0.4639 O   0  0  0  0  0  0  0  0  0  0  0  0
   -0.6841    0.8444   -0.4566 N   0  0  0  0  0  0  0  0  0  0  0  0
    3.2846   -1.6973    0.8632 H   0  0  0  0  0  0  0  0  0  0  0  0
    3.1574   -1.6855   -0.9512 H   0  0  0  0  0  0  0  0  0  0  0  0
    2.5981   -2.5700    0.0000 H   0  0  0  0  0  0  0  0  0  0  0  0
    3.6001   -0.0494   -0.1733 H   0  0  0  0  0  0  0  0  0  0  0  0
    2.4344   -0.0306    0.9931 H   0  0  0  0  0  0  0  0  0  0  0  0
    0.6812    0.0412    0.5064 H   0  0  0  0  0  0  0  0  0  0  0  0
    0.8809   -1.4454   -2.0381 H   0  0  0  0  0  0  0  0  0  0  0  0
   -0.8140   -1.0686   -1.8566 H   0  0  0  0  0  0  0  0  0  0  0  0
   -1.4268   -2.6553   -0.6797 H   0  0  0  0  0  0  0  0  0  0  0  0
   -0.9946   -3.0239    1.1099 H   0  0  0  0  0  0  0  0  0  0  0  0
   -1.0350   -3.7926    0.0000 H   0  0  0  0  0  0  0  0  0  0  0  0
    1.1464   -2.9294   -0.9779 H   0  0  0  0  0  0  0  0  0  0  0  0
    1.1088   -2.7690    1.0072 H   0  0  0  0  0  0  0  0  0  0  0  0
    1.0350   -3.7926    0.0000 H   0  0  0  0  0  0  0  0  0  0  0  0
   -3.5399   -1.4025    0.2607 H   0  0  0  0  0  0  0  0  0  0  0  0
   -0.5958    1.8191   -0.2057 H   0  0  0  0  0  0  0  0  0  0  0  0
  1  2  1  0  0  0  0
  1 15  1  0  0  0  0
  1 16  1  0  0  0  0
  1 17  1  0  0  0  0
  2  3  1  0  0  0  0
  2 18  1  0  0  0  0
  2 19  1  0  0  0  0
  4  3  1  0  0  0  0
  4  5  1  0  0  0  0
  4 14  1  0  0  0  0
  4 20  1  6  0  0  0
  5  6  1  0  0  0  0
  5 21  1  0  0  0  0
  5 22  1  0  0  0  0
  6  7  1  0  0  0  0
  6  8  1  0  0  0  0
  6  9  1  0  0  0  0
  7 23  1  0  0  0  0
  7 24  1  0  0  0  0
  7 25  1  0  0  0  0
  8 26  1  0  0  0  0
  8 27  1  0  0  0  0
  8 28  1  0  0  0  0
  9 10  2  0  0  0  0
 10 11  1  0  0  0  0
 10 14  1  0  0  0  0
 11 12  1  0  0  0  0
 12 13  2  0  0  0  0
 12 29  1  0  0  0  0
 14 30  1  0  0  0  0
M  END
$$$$
