
 OpenBabel03202621372D

 26 26  0  0  1  0  0  0  0  0999 V2000
    0.0000   -3.0000    0.0000 C   0  0  0  0  0  0  0  0  0  0  0  0
    0.0000   -2.0000    0.0000 S   0  0  0  0  0  0  0  0  0  0  0  0
   -1.5664   -1.1757   -0.5996 C   0  0  1  0  0  0  0  0  0  0  0  0
   -1.3715    0.3772   -0.3754 C   0  0  0  0  0  0  0  0  0  0  0  0
   -2.4572    1.2581   -0.2268 C   0  0  0  0  0  0  0  0  0  0  0  0
   -2.2754    2.6375   -0.0236 C   0  0  0  0  0  0  0  0  0  0  0  0
   -0.9965    3.1748    0.0326 C   0  0  0  0  0  0  0  0  0  0  0  0
   -0.7502    5.0277    0.3137 Br  0  0  0  0  0  0  0  0  0  0  0  0
    0.1038    2.3513   -0.1358 C   0  0  0  0  0  0  0  0  0  0  0  0
   -0.0866    0.9809   -0.3620 C   0  0  0  0  0  0  0  0  0  0  0  0
   -2.8593   -1.7396    0.0544 C   0  0  2  0  0  0  0  0  0  0  0  0
   -4.0454   -1.2557   -0.6104 O   0  0  0  0  0  0  0  0  0  0  0  0
   -2.9895   -3.2551   -0.0168 C   0  0  0  0  0  0  0  0  0  0  0  0
   -3.4490   -3.9641    0.8703 O   0  0  0  0  0  0  0  0  0  0  0  0
   -2.6713   -3.7918   -1.2084 O   0  0  0  0  0  0  0  0  0  0  0  0
   -0.2399   -3.1739    1.0670 H   0  0  0  0  0  0  0  0  0  0  0  0
    1.0851   -3.1707   -0.1316 H   0  0  0  0  0  0  0  0  0  0  0  0
    0.0000   -4.0700    0.0000 H   0  0  0  0  0  0  0  0  0  0  0  0
   -1.6136   -1.3055   -1.6874 H   0  0  0  0  0  0  0  0  0  0  0  0
   -3.4847    0.9105   -0.2746 H   0  0  0  0  0  0  0  0  0  0  0  0
   -3.1445    3.2797    0.0848 H   0  0  0  0  0  0  0  0  0  0  0  0
    1.1137    2.7499   -0.0976 H   0  0  0  0  0  0  0  0  0  0  0  0
    0.8197    0.4001   -0.5144 H   0  0  0  0  0  0  0  0  0  0  0  0
   -2.9108   -1.4361    1.1071 H   0  0  0  0  0  0  0  0  0  0  0  0
   -4.8078   -1.5590   -0.0832 H   0  0  0  0  0  0  0  0  0  0  0  0
   -2.8810   -4.7449   -1.1158 H   0  0  0  0  0  0  0  0  0  0  0  0
  1  2  1  0  0  0  0
  1 16  1  0  0  0  0
  1 17  1  0  0  0  0
  1 18  1  0  0  0  0
  3  2  1  0  0  0  0
  3  4  1  0  0  0  0
  3 11  1  0  0  0  0
  3 19  1  1  0  0  0
  4 10  2  0  0  0  0
  4  5  1  0  0  0  0
  5  6  2  0  0  0  0
  5 20  1  0  0  0  0
  6  7  1  0  0  0  0
  6 21  1  0  0  0  0
  7  8  1  0  0  0  0
  7  9  2  0  0  0  0
  9 10  1  0  0  0  0
  9 22  1  0  0  0  0
 10 23  1  0  0  0  0
 11 12  1  0  0  0  0
 11 13  1  0  0  0  0
 11 24  1  6  0  0  0
 12 25  1  0  0  0  0
 13 14  2  0  0  0  0
 13 15  1  0  0  0  0
 15 26  1  0  0  0  0
M  END
$$$$
