
 OpenBabel03202621332D

 22 22  0  0  0  0  0  0  0  0999 V2000
    3.4641    3.0000    0.0000 C   0  0  0  0  0  0  0  0  0  0  0  0
    2.5981    3.5000    0.0000 S   0  0  0  0  0  0  0  0  0  0  0  0
    1.0349    2.8513   -0.2867 C   0  0  0  0  0  0  0  0  0  0  0  0
   -0.1056    3.7025   -1.1618 S   0  0  0  0  0  0  0  0  0  0  0  0
    0.8449    1.6481    0.3274 N   0  0  0  0  0  0  0  0  0  0  0  0
   -0.3232    0.7941    0.2019 C   0  0  0  0  0  0  0  0  0  0  0  0
    0.0523   -0.6561    0.0789 C   0  0  0  0  0  0  0  0  0  0  0  0
    1.3316   -1.0896   -0.2945 C   0  0  0  0  0  0  0  0  0  0  0  0
    1.5977   -2.4450   -0.4049 C   0  0  0  0  0  0  0  0  0  0  0  0
    0.5658   -3.3334   -0.1656 C   0  0  0  0  0  0  0  0  0  0  0  0
   -0.6851   -2.9607    0.1692 N   0  0  0  0  0  0  0  0  0  0  0  0
   -0.9149   -1.6317    0.2785 C   0  0  0  0  0  0  0  0  0  0  0  0
    3.4578    2.6048   -1.0361 H   0  0  0  0  0  0  0  0  0  0  0  0
    4.1587    3.8609    0.0272 H   0  0  0  0  0  0  0  0  0  0  0  0
    4.3907    2.4650    0.0000 H   0  0  0  0  0  0  0  0  0  0  0  0
    1.5613    1.3547    0.9775 H   0  0  0  0  0  0  0  0  0  0  0  0
   -0.9218    1.0711   -0.6702 H   0  0  0  0  0  0  0  0  0  0  0  0
   -0.9241    0.9536    1.1048 H   0  0  0  0  0  0  0  0  0  0  0  0
    2.1253   -0.3796   -0.5121 H   0  0  0  0  0  0  0  0  0  0  0  0
    2.5863   -2.7995   -0.6830 H   0  0  0  0  0  0  0  0  0  0  0  0
    0.7230   -4.4055   -0.2451 H   0  0  0  0  0  0  0  0  0  0  0  0
   -1.9403   -1.3724    0.5317 H   0  0  0  0  0  0  0  0  0  0  0  0
  1  2  1  0  0  0  0
  1 13  1  0  0  0  0
  1 14  1  0  0  0  0
  1 15  1  0  0  0  0
  2  3  1  0  0  0  0
  3  4  2  0  0  0  0
  3  5  1  0  0  0  0
  5  6  1  0  0  0  0
  5 16  1  0  0  0  0
  6  7  1  0  0  0  0
  6 17  1  0  0  0  0
  6 18  1  0  0  0  0
  7 12  2  0  0  0  0
  7  8  1  0  0  0  0
  8  9  2  0  0  0  0
  8 19  1  0  0  0  0
  9 10  1  0  0  0  0
  9 20  1  0  0  0  0
 10 11  2  0  0  0  0
 10 21  1  0  0  0  0
 11 12  1  0  0  0  0
 12 22  1  0  0  0  0
M  END
$$$$
