
 OpenBabel03202621302D

 29 30  0  0  1  0  0  0  0  0999 V2000
    3.4641    1.0000    0.0000 C   0  0  0  0  0  0  0  0  0  0  0  0
    2.5981    1.5000    0.0000 S   0  0  0  0  0  0  0  0  0  0  0  0
    1.1893    0.5043   -0.6228 C   0  0  2  0  0  0  0  0  0  0  0  0
   -0.0259    1.2084    0.0460 C   0  0  0  0  0  0  0  0  0  0  0  0
   -0.0736    2.6036   -0.2519 O   0  0  0  0  0  0  0  0  0  0  0  0
    1.3091   -1.0004   -0.3174 C   0  0  0  0  0  0  0  0  0  0  0  0
    0.1045   -1.8093   -0.4723 N   0  0  0  0  0  0  0  0  0  0  0  0
    0.0472   -3.0535    0.1149 C   0  0  0  0  0  0  0  0  0  0  0  0
   -1.0438   -3.7162    0.2968 N   0  0  0  0  0  0  0  0  0  0  0  0
   -2.2250   -3.0228   -0.0046 C   0  0  0  0  0  0  0  0  0  0  0  0
   -3.3110   -3.3891    0.7119 N   0  0  0  0  0  0  0  0  0  0  0  0
   -4.3810   -2.5619    0.6119 C   0  0  0  0  0  0  0  0  0  0  0  0
   -4.3819   -1.4220   -0.1825 C   0  0  0  0  0  0  0  0  0  0  0  0
   -3.3205   -1.0657   -0.9378 N   0  0  0  0  0  0  0  0  0  0  0  0
   -2.2527   -1.8995   -0.8247 C   0  0  0  0  0  0  0  0  0  0  0  0
   -0.9368   -1.4378   -1.3073 C   0  0  0  0  0  0  0  0  0  0  0  0
   -0.8055   -0.7366   -2.3025 O   0  0  0  0  0  0  0  0  0  0  0  0
    3.4950    0.7033    1.0666 H   0  0  0  0  0  0  0  0  0  0  0  0
    4.1546    1.8541   -0.1331 H   0  0  0  0  0  0  0  0  0  0  0  0
    4.3907    0.4650    0.0000 H   0  0  0  0  0  0  0  0  0  0  0  0
    1.1492    0.6753   -1.7042 H   0  0  0  0  0  0  0  0  0  0  0  0
   -0.9829    0.8097   -0.2860 H   0  0  0  0  0  0  0  0  0  0  0  0
   -0.0001    1.0933    1.1426 H   0  0  0  0  0  0  0  0  0  0  0  0
    0.8351    2.9424   -0.1380 H   0  0  0  0  0  0  0  0  0  0  0  0
    2.0989   -1.4581   -0.9274 H   0  0  0  0  0  0  0  0  0  0  0  0
    1.6136   -1.1304    0.7301 H   0  0  0  0  0  0  0  0  0  0  0  0
    1.0226   -3.4663    0.4189 H   0  0  0  0  0  0  0  0  0  0  0  0
   -5.2392   -2.8292    1.2176 H   0  0  0  0  0  0  0  0  0  0  0  0
   -5.2327   -0.7487   -0.2061 H   0  0  0  0  0  0  0  0  0  0  0  0
  1  2  1  0  0  0  0
  1 18  1  0  0  0  0
  1 19  1  0  0  0  0
  1 20  1  0  0  0  0
  2  3  1  0  0  0  0
  3  4  1  0  0  0  0
  3  6  1  0  0  0  0
  3 21  1  6  0  0  0
  4  5  1  0  0  0  0
  4 22  1  0  0  0  0
  4 23  1  0  0  0  0
  5 24  1  0  0  0  0
  6  7  1  0  0  0  0
  6 25  1  0  0  0  0
  6 26  1  0  0  0  0
  7 16  1  0  0  0  0
  7  8  1  0  0  0  0
  8  9  2  0  0  0  0
  8 27  1  0  0  0  0
  9 10  1  0  0  0  0
 10 15  2  0  0  0  0
 10 11  1  0  0  0  0
 11 12  2  0  0  0  0
 12 13  1  0  0  0  0
 12 28  1  0  0  0  0
 13 14  2  0  0  0  0
 13 29  1  0  0  0  0
 14 15  1  0  0  0  0
 15 16  1  0  0  0  0
 16 17  2  0  0  0  0
M  END
$$$$
