
 OpenBabel03202621282D

 20 22  0  0  0  0  0  0  0  0999 V2000
    1.4945   -0.9706    0.0000 C   0  0  0  0  0  0  0  0  0  0  0  0
    0.5000   -0.8660    0.0000 C   0  0  0  0  0  0  0  0  0  0  0  0
   -0.1691   -1.6092    0.0000 C   0  0  0  0  0  0  0  0  0  0  0  0
   -1.0827   -1.2024    0.0000 N   0  0  0  0  0  0  0  0  0  0  0  0
   -1.9487   -1.7024    0.0000 C   0  0  0  0  0  0  0  0  0  0  0  0
   -1.9487   -2.7024    0.0000 C   0  0  0  0  0  0  0  0  0  0  0  0
   -2.8147   -3.2024    0.0000 C   0  0  0  0  0  0  0  0  0  0  0  0
   -3.6808   -2.7024    0.0000 C   0  0  0  0  0  0  0  0  0  0  0  0
   -3.6808   -1.7024    0.0000 C   0  0  0  0  0  0  0  0  0  0  0  0
   -4.5468   -1.2024    0.0000 C   0  0  0  0  0  0  0  0  0  0  0  0
   -5.4128   -1.7024    0.0000 N   0  0  0  0  0  0  0  0  0  0  0  0
   -6.2788   -1.2024    0.0000 N   0  0  0  0  0  0  0  0  0  0  0  0
   -6.2788   -0.2024    0.0000 C   0  0  0  0  0  0  0  0  0  0  0  0
   -7.1449    0.2976    0.0000 Cl  0  0  0  0  0  0  0  0  0  0  0  0
   -5.4128    0.2976    0.0000 C   0  0  0  0  0  0  0  0  0  0  0  0
   -4.5468   -0.2024    0.0000 C   0  0  0  0  0  0  0  0  0  0  0  0
   -3.6808    0.2976    0.0000 O   0  0  0  0  0  0  0  0  0  0  0  0
   -2.8147   -1.2024    0.0000 C   0  0  0  0  0  0  0  0  0  0  0  0
   -0.9781   -0.2079    0.0000 N   0  0  0  0  0  0  0  0  0  0  0  0
   -0.0000   -0.0000    0.0000 N   0  0  0  0  0  0  0  0  0  0  0  0
  1  2  1  0  0  0  0
  2 20  1  0  0  0  0
  2  3  2  0  0  0  0
  3  4  1  0  0  0  0
  4  5  1  0  0  0  0
  4 19  1  0  0  0  0
  5 18  2  0  0  0  0
  5  6  1  0  0  0  0
  6  7  2  0  0  0  0
  7  8  1  0  0  0  0
  8  9  2  0  0  0  0
  9 10  1  0  0  0  0
  9 18  1  0  0  0  0
 10 16  2  0  0  0  0
 10 11  1  0  0  0  0
 11 12  2  0  0  0  0
 12 13  1  0  0  0  0
 13 14  1  0  0  0  0
 13 15  2  0  0  0  0
 15 16  1  0  0  0  0
 16 17  1  0  0  0  0
 19 20  2  0  0  0  0
M  END
$$$$
