
 OpenBabel03202621282D

 37 39  0  0  1  0  0  0  0  0999 V2000
  -10.2455   -2.2392    0.0000 C   0  0  0  0  0  0  0  0  0  0  0  0
  -10.1150   -3.2306    0.0000 C   0  0  0  0  0  0  0  0  0  0  0  0
  -10.9084   -3.8394    0.0000 O   0  0  0  0  0  0  0  0  0  0  0  0
   -9.1911   -3.6133    0.0000 C   0  0  0  0  0  0  0  0  0  0  0  0
   -8.3978   -3.0045    0.0000 C   0  0  0  0  0  0  0  0  0  0  0  0
   -8.5283   -2.0131    0.0000 O   0  0  0  0  0  0  0  0  0  0  0  0
   -7.4739   -3.3872    0.0000 C   0  0  2  0  0  0  0  0  0  0  0  0
   -7.3434   -4.3786    0.0000 O   0  0  0  0  0  0  0  0  0  0  0  0
   -6.6806   -2.7784    0.0000 C   0  0  0  0  0  0  0  0  0  0  0  0
   -6.8111   -1.7870    0.0000 O   0  0  0  0  0  0  0  0  0  0  0  0
   -5.7567   -3.1611    0.0000 C   0  0  2  0  0  0  0  0  0  0  0  0
   -5.6261   -4.1526    0.0000 C   0  0  0  0  0  0  0  0  0  0  0  0
   -6.4195   -4.7613    0.0000 C   0  0  0  0  0  0  0  0  0  0  0  0
   -6.2890   -5.7528    0.0000 O   0  0  0  0  0  0  0  0  0  0  0  0
   -4.9633   -2.5524    0.0000 C   0  0  0  0  0  0  0  0  0  0  0  0
   -4.0394   -2.9350    0.0000 O   0  0  0  0  0  0  0  0  0  0  0  0
   -5.0938   -1.5609    0.0000 C   0  0  0  0  0  0  0  0  0  0  0  0
   -6.0177   -1.1782    0.0000 C   0  0  0  0  0  0  0  0  0  0  0  0
   -6.1483   -0.1868    0.0000 C   0  0  0  0  0  0  0  0  0  0  0  0
   -5.3549    0.4220    0.0000 C   0  0  0  0  0  0  0  0  0  0  0  0
   -4.4310    0.0393    0.0000 C   0  0  0  0  0  0  0  0  0  0  0  0
   -4.3005   -0.9522    0.0000 C   0  0  0  0  0  0  0  0  0  0  0  0
   -3.3766   -1.3348    0.0000 O   0  0  0  0  0  0  0  0  0  0  0  0
   -2.5833   -0.7261    0.0000 C   0  0  0  0  0  0  0  0  0  0  0  0
   -2.7138    0.2654    0.0000 O   0  0  0  0  0  0  0  0  0  0  0  0
   -1.6594   -1.1088    0.0000 N   0  0  0  0  0  0  0  0  0  0  0  0
   -0.8660   -0.5000    0.0000 C   0  0  0  0  0  0  0  0  0  0  0  0
   -1.1248    0.4659    0.0000 C   0  0  0  0  0  0  0  0  0  0  0  0
   -0.4955    1.2431    0.0000 C   0  0  0  0  0  0  0  0  0  0  0  0
   -1.0402    2.0817    0.0000 C   0  0  0  0  0  0  0  0  0  0  0  0
   -2.0061    1.8229    0.0000 C   0  0  0  0  0  0  0  0  0  0  0  0
   -2.0584    0.8243    0.0000 S   0  0  0  0  0  0  0  0  0  0  0  0
   -0.8660   -1.5000    0.0000 C   0  0  0  0  0  0  0  0  0  0  0  0
   -0.0000   -2.0000    0.0000 C   0  0  0  0  0  0  0  0  0  0  0  0
    0.8660   -1.5000    0.0000 O   0  0  0  0  0  0  0  0  0  0  0  0
    0.8660   -0.5000    0.0000 C   0  0  0  0  0  0  0  0  0  0  0  0
    0.0000    0.0000    0.0000 C   0  0  0  0  0  0  0  0  0  0  0  0
  1  2  1  0  0  0  0
  2  3  2  0  0  0  0
  2  4  1  0  0  0  0
  4  5  1  0  0  0  0
  5  6  2  0  0  0  0
  5  7  1  0  0  0  0
  7  8  1  1  0  0  0
  7  9  1  0  0  0  0
  9 10  2  0  0  0  0
  9 11  1  0  0  0  0
 11 12  1  1  0  0  0
 11 15  1  0  0  0  0
 12 13  1  0  0  0  0
 13 14  1  0  0  0  0
 15 16  2  0  0  0  0
 15 17  1  0  0  0  0
 17 22  2  0  0  0  0
 17 18  1  0  0  0  0
 18 19  2  0  0  0  0
 19 20  1  0  0  0  0
 20 21  2  0  0  0  0
 21 22  1  0  0  0  0
 22 23  1  0  0  0  0
 23 24  1  0  0  0  0
 24 25  2  0  0  0  0
 24 26  1  0  0  0  0
 26 27  1  0  0  0  0
 27 37  1  0  0  0  0
 27 28  1  0  0  0  0
 27 33  1  0  0  0  0
 28 32  1  0  0  0  0
 28 29  2  0  0  0  0
 29 30  1  0  0  0  0
 30 31  2  0  0  0  0
 31 32  1  0  0  0  0
 33 34  1  0  0  0  0
 34 35  1  0  0  0  0
 35 36  1  0  0  0  0
 36 37  1  0  0  0  0
M  END
$$$$
