
 OpenBabel03202621282D

 19 21  0  0  0  0  0  0  0  0999 V2000
    2.4991   -2.4528    0.0000 O   0  5  0  0  0  0  0  0  0  0  0  0
    2.4993   -1.4438    0.0000 C   0  0  0  0  0  0  0  0  0  0  0  0
    3.3322   -0.9630    0.0000 C   0  0  0  0  0  0  0  0  0  0  0  0
    3.3324   -0.0007    0.0000 O   0  0  0  0  0  0  0  0  0  0  0  0
    2.4997    0.4804    0.0000 C   0  0  0  0  0  0  0  0  0  0  0  0
    1.6662   -0.0003    0.0000 C   0  0  0  0  0  0  0  0  0  0  0  0
    1.6660   -0.9627    0.0000 C   0  0  0  0  0  0  0  0  0  0  0  0
    0.8331   -1.4434    0.0000 N   0  0  0  0  0  0  0  0  0  0  0  0
   -0.0002   -0.9623    0.0000 C   0  0  0  0  0  0  0  0  0  0  0  0
   -0.8336   -1.4431    0.0000 C   0  0  0  0  0  0  0  0  0  0  0  0
   -1.6664   -0.9620    0.0000 C   0  0  0  0  0  0  0  0  0  0  0  0
   -1.6662    0.0003    0.0000 C   0  0  0  0  0  0  0  0  0  0  0  0
   -2.5400    0.5050    0.0000 F   0  0  0  0  0  0  0  0  0  0  0  0
   -0.8333    0.4811    0.0000 C   0  0  0  0  0  0  0  0  0  0  0  0
   -0.8332    1.4428    0.0000 C   0  0  0  0  0  0  0  0  0  0  0  0
   -1.3140    2.2757    0.0000 F   0  0  0  0  0  0  0  0  0  0  0  0
   -1.7949    1.4429    0.0000 F   0  0  0  0  0  0  0  0  0  0  0  0
   -0.0003    1.9236    0.0000 F   0  0  0  0  0  0  0  0  0  0  0  0
    0.0000   -0.0000    0.0000 C   0  0  0  0  0  0  0  0  0  0  0  0
  1  2  1  0  0  0  0
  2  7  1  0  0  0  0
  2  3  2  0  0  0  0
  3  4  1  0  0  0  0
  4  5  1  0  0  0  0
  5  6  1  0  0  0  0
  6 19  1  0  0  0  0
  6  7  2  0  0  0  0
  7  8  1  0  0  0  0
  8  9  1  0  0  0  0
  9 19  2  0  0  0  0
  9 10  1  0  0  0  0
 10 11  2  0  0  0  0
 11 12  1  0  0  0  0
 12 13  1  0  0  0  0
 12 14  2  0  0  0  0
 14 15  1  0  0  0  0
 14 19  1  0  0  0  0
 15 16  1  0  0  0  0
 15 17  1  0  0  0  0
 15 18  1  0  0  0  0
M  CHG  1   1  -1
M  END
$$$$
