
 OpenBabel03202621352D

 26 26  0  0  0  0  0  0  0  0999 V2000
    1.5878    0.8090    0.0000 C   0  0  0  0  0  0  0  0  0  0  0  0
    1.0000    0.0000    0.0000 C   0  0  0  0  0  0  0  0  0  0  0  0
    0.3842   -0.4886    1.1441 C   0  0  0  0  0  0  0  0  0  0  0  0
   -0.3320   -1.4223    0.4569 N   0  0  0  0  0  0  0  0  0  0  0  0
    0.5000   -2.5388    0.0000 C   0  0  0  0  0  0  0  0  0  0  0  0
    0.1223   -3.4984    1.2728 C   0  0  0  0  0  0  0  0  0  0  0  0
    1.5000   -2.5388    0.0000 C   0  0  0  0  0  0  0  0  0  0  0  0
   -0.2205   -3.2406   -1.2877 C   0  0  0  0  0  0  0  0  0  0  0  0
   -0.9163   -4.5540   -1.0381 C   0  0  0  0  0  0  0  0  0  0  0  0
   -2.0421   -4.7124   -0.6050 O   0  0  0  0  0  0  0  0  0  0  0  0
   -0.1335   -5.6140   -1.3159 O   0  0  0  0  0  0  0  0  0  0  0  0
   -0.9636   -0.7617   -0.5270 N   0  0  0  0  0  0  0  0  0  0  0  0
    0.0611   -0.1292   -1.0521 N   0  0  0  0  0  0  0  0  0  0  0  0
    2.2053    0.5884   -0.9022 H   0  0  0  0  0  0  0  0  0  0  0  0
    0.8530    1.6325   -0.1936 H   0  0  0  0  0  0  0  0  0  0  0  0
    2.2167    1.6746    0.0000 H   0  0  0  0  0  0  0  0  0  0  0  0
    0.6056   -0.4936    2.2021 H   0  0  0  0  0  0  0  0  0  0  0  0
    0.4677   -4.5350    1.1514 H   0  0  0  0  0  0  0  0  0  0  0  0
    0.5904   -3.1297    2.2001 H   0  0  0  0  0  0  0  0  0  0  0  0
   -0.9590   -3.5291    1.4647 H   0  0  0  0  0  0  0  0  0  0  0  0
    1.7436   -3.6169   -0.1976 H   0  0  0  0  0  0  0  0  0  0  0  0
    1.7157   -2.0396   -0.9785 H   0  0  0  0  0  0  0  0  0  0  0  0
    2.5700   -2.5388    0.0000 H   0  0  0  0  0  0  0  0  0  0  0  0
   -0.9808   -2.6176   -1.7709 H   0  0  0  0  0  0  0  0  0  0  0  0
    0.5070   -3.4058   -2.0979 H   0  0  0  0  0  0  0  0  0  0  0  0
   -0.7059   -6.3872   -1.1272 H   0  0  0  0  0  0  0  0  0  0  0  0
  1  2  1  0  0  0  0
  1 14  1  0  0  0  0
  1 15  1  0  0  0  0
  1 16  1  0  0  0  0
  2 13  1  0  0  0  0
  2  3  2  0  0  0  0
  3  4  1  0  0  0  0
  3 17  1  0  0  0  0
  4  5  1  0  0  0  0
  4 12  1  0  0  0  0
  5  6  1  0  0  0  0
  5  7  1  0  0  0  0
  5  8  1  0  0  0  0
  6 18  1  0  0  0  0
  6 19  1  0  0  0  0
  6 20  1  0  0  0  0
  7 21  1  0  0  0  0
  7 22  1  0  0  0  0
  7 23  1  0  0  0  0
  8  9  1  0  0  0  0
  8 24  1  0  0  0  0
  8 25  1  0  0  0  0
  9 10  2  0  0  0  0
  9 11  1  0  0  0  0
 11 26  1  0  0  0  0
 12 13  2  0  0  0  0
M  END
$$$$
