
 OpenBabel03202621292D

 21 22  0  0  0  0  0  0  0  0999 V2000
   -0.2788   -1.7601    0.0000 C   0  0  0  0  0  0  0  0  0  0  0  0
   -0.5878   -0.8090    0.0000 C   0  0  0  0  0  0  0  0  0  0  0  0
   -1.7713   -0.2860    0.0000 C   0  0  0  0  0  0  0  0  0  0  0  0
   -1.6693    1.0246    0.0000 N   0  0  0  0  0  0  0  0  0  0  0  0
   -2.7876    1.8244   -0.0000 C   0  0  0  0  0  0  0  0  0  0  0  0
   -4.0855    1.0088   -0.0000 C   0  0  0  0  0  0  0  0  0  0  0  0
   -4.4918   -0.3062    0.0000 C   0  0  0  0  0  0  0  0  0  0  0  0
   -6.1573   -0.6226    0.0000 S   0  0  0  0  0  0  0  0  0  0  0  0
   -6.3912    1.0917    0.0000 C   0  0  0  0  0  0  0  0  0  0  0  0
   -7.5029    1.6106   -0.0000 O   0  0  0  0  0  0  0  0  0  0  0  0
   -5.2211    1.7651    0.0000 N   0  0  0  0  0  0  0  0  0  0  0  0
   -0.3845    1.4031   -0.0000 N   0  0  0  0  0  0  0  0  0  0  0  0
    0.3033    0.2711   -0.0000 N   0  0  0  0  0  0  0  0  0  0  0  0
   -1.1535   -2.4326   -0.0000 H   0  0  0  0  0  0  0  0  0  0  0  0
    0.8236   -1.7720   -0.0000 H   0  0  0  0  0  0  0  0  0  0  0  0
    0.0518   -2.7777    0.0000 H   0  0  0  0  0  0  0  0  0  0  0  0
   -2.5495   -0.9452    0.0000 H   0  0  0  0  0  0  0  0  0  0  0  0
   -2.1438    2.7376    0.0000 H   0  0  0  0  0  0  0  0  0  0  0  0
   -3.2707    2.8179    0.0000 H   0  0  0  0  0  0  0  0  0  0  0  0
   -4.0518   -1.2805   -0.0000 H   0  0  0  0  0  0  0  0  0  0  0  0
   -5.2453    2.7682   -0.0000 H   0  0  0  0  0  0  0  0  0  0  0  0
  1  2  1  0  0  0  0
  1 14  1  0  0  0  0
  1 15  1  0  0  0  0
  1 16  1  0  0  0  0
  2 13  1  0  0  0  0
  2  3  2  0  0  0  0
  3  4  1  0  0  0  0
  3 17  1  0  0  0  0
  4  5  1  0  0  0  0
  4 12  1  0  0  0  0
  5  6  1  0  0  0  0
  5 18  1  0  0  0  0
  5 19  1  0  0  0  0
  6 11  1  0  0  0  0
  6  7  2  0  0  0  0
  7  8  1  0  0  0  0
  7 20  1  0  0  0  0
  8  9  1  0  0  0  0
  9 10  2  0  0  0  0
  9 11  1  0  0  0  0
 11 21  1  0  0  0  0
 12 13  2  0  0  0  0
M  END
$$$$
