
 OpenBabel03202621332D

 19 19  0  0  1  0  0  0  0  0999 V2000
    1.4483   -1.6730    0.0000 C   0  0  0  0  0  0  0  0  0  0  0  0
    1.7071   -0.7071    0.0000 C   0  0  1  0  0  0  0  0  0  0  0  0
    2.4216   -0.3152   -1.2057 O   0  0  0  0  0  0  0  0  0  0  0  0
    3.5697    0.3814   -1.0102 C   0  0  0  0  0  0  0  0  0  0  0  0
    4.5083    0.3697   -1.7963 O   0  0  0  0  0  0  0  0  0  0  0  0
    0.5369    0.2914    0.2434 C   0  0  2  0  0  0  0  0  0  0  0  0
   -0.7476    0.3456   -0.6109 C   0  0  0  0  0  0  0  0  0  0  0  0
   -0.3437    1.6877   -1.0285 N   0  0  0  0  0  0  0  0  0  0  0  0
    0.7219    1.7441   -0.1787 C   0  0  0  0  0  0  0  0  0  0  0  0
    1.4228    2.6730    0.1498 O   0  0  0  0  0  0  0  0  0  0  0  0
    1.0550   -1.7896    1.0426 H   0  0  0  0  0  0  0  0  0  0  0  0
    2.4586   -2.1580   -0.0373 H   0  0  0  0  0  0  0  0  0  0  0  0
    1.1714   -2.7065    0.0000 H   0  0  0  0  0  0  0  0  0  0  0  0
    2.3906   -0.4272    0.8290 H   0  0  0  0  0  0  0  0  0  0  0  0
    3.5658    0.9779   -0.0771 H   0  0  0  0  0  0  0  0  0  0  0  0
    0.2800    0.2645    1.3208 H   0  0  0  0  0  0  0  0  0  0  0  0
   -0.8153   -0.3561   -1.4450 H   0  0  0  0  0  0  0  0  0  0  0  0
   -1.6814    0.3465   -0.0372 H   0  0  0  0  0  0  0  0  0  0  0  0
   -0.8979    2.5238   -1.1502 H   0  0  0  0  0  0  0  0  0  0  0  0
  1 11  1  0  0  0  0
  1 12  1  0  0  0  0
  1 13  1  0  0  0  0
  2  1  1  0  0  0  0
  2  3  1  0  0  0  0
  2 14  1  1  0  0  0
  3  4  1  0  0  0  0
  4  5  2  0  0  0  0
  4 15  1  0  0  0  0
  6  2  1  0  0  0  0
  6  7  1  0  0  0  0
  6  9  1  0  0  0  0
  6 16  1  1  0  0  0
  7  8  1  0  0  0  0
  7 17  1  0  0  0  0
  7 18  1  0  0  0  0
  8  9  1  0  0  0  0
  8 19  1  0  0  0  0
  9 10  2  0  0  0  0
M  END
$$$$
