
 OpenBabel03202621332D

 26 26  0  0  0  0  0  0  0  0999 V2000
    0.0000   -5.0000    0.0000 C   0  0  0  0  0  0  0  0  0  0  0  0
    0.8660   -4.5000    0.0000 S   0  0  0  0  0  0  0  0  0  0  0  0
    1.3411   -3.2582    1.0618 C   0  0  0  0  0  0  0  0  0  0  0  0
    2.5031   -3.0165    1.3169 O   0  0  0  0  0  0  0  0  0  0  0  0
    0.2897   -2.4435    1.3397 N   0  0  0  0  0  0  0  0  0  0  0  0
    0.3378   -1.1817    0.6238 C   0  0  0  0  0  0  0  0  0  0  0  0
   -1.0360   -0.8363    0.0474 C   0  0  0  0  0  0  0  0  0  0  0  0
   -1.2517    0.6375   -0.1126 C   0  0  0  0  0  0  0  0  0  0  0  0
   -2.5344    1.1620    0.0729 C   0  0  0  0  0  0  0  0  0  0  0  0
   -2.7322    2.5447    0.0843 C   0  0  0  0  0  0  0  0  0  0  0  0
   -1.6563    3.4098   -0.1024 C   0  0  0  0  0  0  0  0  0  0  0  0
   -0.3911    2.8906   -0.3576 C   0  0  0  0  0  0  0  0  0  0  0  0
   -0.2026    1.5207   -0.3922 C   0  0  0  0  0  0  0  0  0  0  0  0
    1.0256    1.0564   -0.6658 F   0  0  0  0  0  0  0  0  0  0  0  0
   -0.5471   -4.4077   -0.7596 H   0  0  0  0  0  0  0  0  0  0  0  0
    0.3426   -5.9368   -0.4786 H   0  0  0  0  0  0  0  0  0  0  0  0
   -0.9266   -5.5350    0.0000 H   0  0  0  0  0  0  0  0  0  0  0  0
   -0.5916   -2.9224    1.2412 H   0  0  0  0  0  0  0  0  0  0  0  0
    1.0569   -1.2551   -0.2058 H   0  0  0  0  0  0  0  0  0  0  0  0
    0.7155   -0.4355    1.3287 H   0  0  0  0  0  0  0  0  0  0  0  0
   -1.8060   -1.2211    0.7295 H   0  0  0  0  0  0  0  0  0  0  0  0
   -1.1886   -1.3495   -0.9101 H   0  0  0  0  0  0  0  0  0  0  0  0
   -3.3803    0.5014    0.2487 H   0  0  0  0  0  0  0  0  0  0  0  0
   -3.7271    2.9404    0.2649 H   0  0  0  0  0  0  0  0  0  0  0  0
   -1.8035    4.4854   -0.0483 H   0  0  0  0  0  0  0  0  0  0  0  0
    0.4619    3.5484   -0.5137 H   0  0  0  0  0  0  0  0  0  0  0  0
  1  2  1  0  0  0  0
  1 15  1  0  0  0  0
  1 16  1  0  0  0  0
  1 17  1  0  0  0  0
  2  3  1  0  0  0  0
  3  4  2  0  0  0  0
  3  5  1  0  0  0  0
  5  6  1  0  0  0  0
  5 18  1  0  0  0  0
  6  7  1  0  0  0  0
  6 19  1  0  0  0  0
  6 20  1  0  0  0  0
  7  8  1  0  0  0  0
  7 21  1  0  0  0  0
  7 22  1  0  0  0  0
  8 13  2  0  0  0  0
  8  9  1  0  0  0  0
  9 10  2  0  0  0  0
  9 23  1  0  0  0  0
 10 11  1  0  0  0  0
 10 24  1  0  0  0  0
 11 12  2  0  0  0  0
 11 25  1  0  0  0  0
 12 13  1  0  0  0  0
 12 26  1  0  0  0  0
 13 14  1  0  0  0  0
M  END
$$$$
