
 OpenBabel03202621382D

 32 32  0  0  0  0  0  0  0  0999 V2000
    1.7601   -0.2788    0.0000 C   0  0  0  0  0  0  0  0  0  0  0  0
    0.8090   -0.5878    0.0000 C   0  0  0  0  0  0  0  0  0  0  0  0
    0.1361   -1.5092    0.7840 C   0  0  0  0  0  0  0  0  0  0  0  0
   -1.1143   -1.6162    0.2417 N   0  0  0  0  0  0  0  0  0  0  0  0
   -2.0466   -2.7121    0.4086 C   0  0  0  0  0  0  0  0  0  0  0  0
   -1.4693   -3.9564   -0.2571 C   0  0  0  0  0  0  0  0  0  0  0  0
   -2.2945   -5.2116   -0.0094 C   0  0  0  0  0  0  0  0  0  0  0  0
   -1.3965   -6.4345   -0.2005 C   0  0  0  0  0  0  0  0  0  0  0  0
   -2.1299   -7.7451    0.0513 C   0  0  0  0  0  0  0  0  0  0  0  0
   -1.1400   -8.9073    0.0244 C   0  0  0  0  0  0  0  0  0  0  0  0
   -1.8201  -10.2272    0.2470 C   0  0  0  0  0  0  0  0  0  0  0  0
   -2.9808  -10.4224    0.5604 O   0  0  0  0  0  0  0  0  0  0  0  0
   -0.9682  -11.2574    0.0794 O   0  0  0  0  0  0  0  0  0  0  0  0
   -1.2933   -0.7352   -0.7434 N   0  0  0  0  0  0  0  0  0  0  0  0
   -0.1450   -0.1045   -0.9061 N   0  0  0  0  0  0  0  0  0  0  0  0
    2.0575   -0.5792   -1.0327 H   0  0  0  0  0  0  0  0  0  0  0  0
    1.6083    0.8244    0.0734 H   0  0  0  0  0  0  0  0  0  0  0  0
    2.7777    0.0518    0.0000 H   0  0  0  0  0  0  0  0  0  0  0  0
    0.4619   -2.1444    1.5949 H   0  0  0  0  0  0  0  0  0  0  0  0
   -3.0054   -2.4250   -0.0369 H   0  0  0  0  0  0  0  0  0  0  0  0
   -2.1889   -2.8520    1.4854 H   0  0  0  0  0  0  0  0  0  0  0  0
   -1.3679   -3.7910   -1.3381 H   0  0  0  0  0  0  0  0  0  0  0  0
   -0.4493   -4.1152    0.1171 H   0  0  0  0  0  0  0  0  0  0  0  0
   -2.6985   -5.2104    1.0090 H   0  0  0  0  0  0  0  0  0  0  0  0
   -3.1432   -5.2432   -0.7017 H   0  0  0  0  0  0  0  0  0  0  0  0
   -0.5489   -6.3621    0.4935 H   0  0  0  0  0  0  0  0  0  0  0  0
   -0.9786   -6.4330   -1.2148 H   0  0  0  0  0  0  0  0  0  0  0  0
   -2.6366   -7.7116    1.0234 H   0  0  0  0  0  0  0  0  0  0  0  0
   -2.9070   -7.8888   -0.7091 H   0  0  0  0  0  0  0  0  0  0  0  0
   -0.3892   -8.7765    0.8120 H   0  0  0  0  0  0  0  0  0  0  0  0
   -0.6334   -8.9381   -0.9470 H   0  0  0  0  0  0  0  0  0  0  0  0
   -1.5157  -12.0529    0.2562 H   0  0  0  0  0  0  0  0  0  0  0  0
  1  2  1  0  0  0  0
  1 16  1  0  0  0  0
  1 17  1  0  0  0  0
  1 18  1  0  0  0  0
  2 15  1  0  0  0  0
  2  3  2  0  0  0  0
  3  4  1  0  0  0  0
  3 19  1  0  0  0  0
  4  5  1  0  0  0  0
  4 14  1  0  0  0  0
  5  6  1  0  0  0  0
  5 20  1  0  0  0  0
  5 21  1  0  0  0  0
  6  7  1  0  0  0  0
  6 22  1  0  0  0  0
  6 23  1  0  0  0  0
  7  8  1  0  0  0  0
  7 24  1  0  0  0  0
  7 25  1  0  0  0  0
  8  9  1  0  0  0  0
  8 26  1  0  0  0  0
  8 27  1  0  0  0  0
  9 10  1  0  0  0  0
  9 28  1  0  0  0  0
  9 29  1  0  0  0  0
 10 11  1  0  0  0  0
 10 30  1  0  0  0  0
 10 31  1  0  0  0  0
 11 12  2  0  0  0  0
 11 13  1  0  0  0  0
 13 32  1  0  0  0  0
 14 15  2  0  0  0  0
M  END
$$$$
