
 OpenBabel03202621342D

 19 19  0  0  0  0  0  0  0  0999 V2000
    0.8660    3.5000    0.0000 C   0  0  0  0  0  0  0  0  0  0  0  0
    0.0000    3.0000    0.0000 S   0  0  0  0  0  0  0  0  0  0  0  0
   -0.5911    1.4312    0.0000 C   0  0  0  0  0  0  0  0  0  0  0  0
   -1.7772    1.1645    0.0000 O   0  0  0  0  0  0  0  0  0  0  0  0
    0.4898    0.6673    0.0000 N   0  0  0  0  0  0  0  0  0  0  0  0
    0.6682   -0.6858    0.0000 C   0  0  0  0  0  0  0  0  0  0  0  0
    2.0187   -1.0303    0.0000 C   0  0  0  0  0  0  0  0  0  0  0  0
    2.3600   -2.3500   -0.0000 C   0  0  0  0  0  0  0  0  0  0  0  0
    1.3295   -3.2778   -0.0000 C   0  0  0  0  0  0  0  0  0  0  0  0
    0.0081   -2.9697   -0.0000 N   0  0  0  0  0  0  0  0  0  0  0  0
   -0.3096   -1.6648    0.0000 C   0  0  0  0  0  0  0  0  0  0  0  0
   -1.6107   -1.3497    0.0000 F   0  0  0  0  0  0  0  0  0  0  0  0
    1.7219    2.8293   -0.0000 H   0  0  0  0  0  0  0  0  0  0  0  0
    0.6052    4.5626   -0.0000 H   0  0  0  0  0  0  0  0  0  0  0  0
    1.7926    4.0350    0.0000 H   0  0  0  0  0  0  0  0  0  0  0  0
    1.3442    1.1865    0.0000 H   0  0  0  0  0  0  0  0  0  0  0  0
    2.7983   -0.2690    0.0000 H   0  0  0  0  0  0  0  0  0  0  0  0
    3.4000   -2.6471   -0.0000 H   0  0  0  0  0  0  0  0  0  0  0  0
    1.5440   -4.3371   -0.0000 H   0  0  0  0  0  0  0  0  0  0  0  0
  1  2  1  0  0  0  0
  1 13  1  0  0  0  0
  1 14  1  0  0  0  0
  1 15  1  0  0  0  0
  2  3  1  0  0  0  0
  3  4  2  0  0  0  0
  3  5  1  0  0  0  0
  5  6  1  0  0  0  0
  5 16  1  0  0  0  0
  6 11  2  0  0  0  0
  6  7  1  0  0  0  0
  7  8  2  0  0  0  0
  7 17  1  0  0  0  0
  8  9  1  0  0  0  0
  8 18  1  0  0  0  0
  9 10  2  0  0  0  0
  9 19  1  0  0  0  0
 10 11  1  0  0  0  0
 11 12  1  0  0  0  0
M  END
$$$$
