
 OpenBabel03202621312D

 14 14  0  0  0  0  0  0  0  0999 V2000
   -0.8660   -2.5000    0.0000 N   0  0  0  0  0  0  0  0  0  0  0  0
   -0.8660   -1.5000    0.0000 C   0  0  0  0  0  0  0  0  0  0  0  0
   -0.8660   -0.5000    0.0000 C   0  0  0  0  0  0  0  0  0  0  0  0
   -1.9036    0.2651    0.3990 C   0  0  0  0  0  0  0  0  0  0  0  0
   -1.9886    1.6301    0.4900 O   0  0  0  0  0  0  0  0  0  0  0  0
   -0.9367    2.3519   -0.1477 C   0  0  0  0  0  0  0  0  0  0  0  0
    0.4089    1.7329    0.1296 C   0  0  0  0  0  0  0  0  0  0  0  0
    0.3575    0.2997   -0.3301 C   0  0  0  0  0  0  0  0  0  0  0  0
    1.3319   -0.2025   -0.8884 O   0  0  0  0  0  0  0  0  0  0  0  0
   -2.8464   -0.1538    0.7505 H   0  0  0  0  0  0  0  0  0  0  0  0
   -1.1457    2.3957   -1.2240 H   0  0  0  0  0  0  0  0  0  0  0  0
   -0.9608    3.3778    0.2348 H   0  0  0  0  0  0  0  0  0  0  0  0
    1.1915    2.2669   -0.4171 H   0  0  0  0  0  0  0  0  0  0  0  0
    0.6500    1.7392    1.1976 H   0  0  0  0  0  0  0  0  0  0  0  0
  1  2  3  0  0  0  0
  2  3  1  0  0  0  0
  3  8  1  0  0  0  0
  3  4  2  0  0  0  0
  4  5  1  0  0  0  0
  4 10  1  0  0  0  0
  5  6  1  0  0  0  0
  6  7  1  0  0  0  0
  6 11  1  0  0  0  0
  6 12  1  0  0  0  0
  7  8  1  0  0  0  0
  7 13  1  0  0  0  0
  7 14  1  0  0  0  0
  8  9  2  0  0  0  0
M  END
$$$$
