
 OpenBabel03202621282D

 16 17  0  0  1  0  0  0  0  0999 V2000
   -2.8569   -0.5341    0.0000 N   0  0  0  0  0  0  0  0  0  0  0  0
   -2.8569    0.4659    0.0000 C   0  0  0  0  0  0  0  0  0  0  0  0
   -3.7229    0.9659    0.0000 C   0  0  0  0  0  0  0  0  0  0  0  0
   -3.7229    1.9659    0.0000 C   0  0  0  0  0  0  0  0  0  0  0  0
   -2.8569    2.4659    0.0000 C   0  0  0  0  0  0  0  0  0  0  0  0
   -1.9909    1.9659    0.0000 C   0  0  0  0  0  0  0  0  0  0  0  0
   -1.9909    0.9659    0.0000 C   0  0  0  0  0  0  0  0  0  0  0  0
   -1.1248    0.4659    0.0000 C   0  0  0  0  0  0  0  0  0  0  0  0
   -0.2588    0.9659    0.0000 C   0  0  3  0  0  0  0  0  0  0  0  0
   -0.3893    1.9574    0.0000 O   0  0  0  0  0  0  0  0  0  0  0  0
    0.4483    1.6730    0.0000 C   0  0  0  0  0  0  0  0  0  0  0  0
    1.4142    1.4142    0.0000 O   0  0  0  0  0  0  0  0  0  0  0  0
    1.6730    0.4483    0.0000 C   0  0  0  0  0  0  0  0  0  0  0  0
    0.9659   -0.2588    0.0000 C   0  0  0  0  0  0  0  0  0  0  0  0
    0.0000    0.0000    0.0000 C   0  0  0  0  0  0  0  0  0  0  0  0
   -0.7071   -0.7071    0.0000 O   0  0  0  0  0  0  0  0  0  0  0  0
  1  2  1  0  0  0  0
  2  7  2  0  0  0  0
  2  3  1  0  0  0  0
  3  4  2  0  0  0  0
  4  5  1  0  0  0  0
  5  6  2  0  0  0  0
  6  7  1  0  0  0  0
  7  8  1  0  0  0  0
  8  9  1  0  0  0  0
  9 15  1  0  0  0  0
  9 10  1  0  0  0  0
  9 11  1  0  0  0  0
 11 12  1  0  0  0  0
 12 13  1  0  0  0  0
 13 14  1  0  0  0  0
 14 15  1  0  0  0  0
 15 16  2  0  0  0  0
M  END
$$$$
