
 OpenBabel03202621402D

 62 63  0  0  1  0  0  0  0  0999 V2000
   -1.1293   -6.9848    0.0713 C   0  0  0  0  0  0  0  0  0  0  0  0
   -0.2399   -6.6094   -1.0891 C   0  0  0  0  0  0  0  0  0  0  0  0
    0.3473   -7.4782   -1.7434 O   0  0  0  0  0  0  0  0  0  0  0  0
   -0.0209   -5.1461   -1.4068 C   0  0  0  0  0  0  0  0  0  0  0  0
   -1.2565   -4.2927   -1.2214 C   0  0  0  0  0  0  0  0  0  0  0  0
   -2.3452   -4.7950   -1.5172 O   0  0  0  0  0  0  0  0  0  0  0  0
   -1.1352   -2.8097   -0.8583 C   0  0  1  0  0  0  0  0  0  0  0  0
   -2.4173   -1.9892   -1.0963 C   0  0  0  0  0  0  0  0  0  0  0  0
   -2.2843   -0.8898   -1.6481 O   0  0  0  0  0  0  0  0  0  0  0  0
   -3.8048   -2.5432   -0.7661 C   0  0  2  0  0  0  0  0  0  0  0  0
   -3.8906   -3.2288    0.6039 C   0  0  0  0  0  0  0  0  0  0  0  0
   -4.9068   -4.3758    0.6013 C   0  0  0  0  0  0  0  0  0  0  0  0
   -4.4474   -5.3915    1.4861 O   0  0  0  0  0  0  0  0  0  0  0  0
   -5.0703   -1.7311   -1.0247 C   0  0  0  0  0  0  0  0  0  0  0  0
   -6.0989   -2.3114   -1.3916 O   0  0  0  0  0  0  0  0  0  0  0  0
   -5.2058   -0.2751   -0.8001 C   0  0  0  0  0  0  0  0  0  0  0  0
   -4.7454    0.6171   -1.7732 C   0  0  0  0  0  0  0  0  0  0  0  0
   -5.0863    1.9712   -1.7066 C   0  0  0  0  0  0  0  0  0  0  0  0
   -5.9247    2.4349   -0.6923 C   0  0  0  0  0  0  0  0  0  0  0  0
   -6.4158    1.5468    0.2665 C   0  0  0  0  0  0  0  0  0  0  0  0
   -6.0615    0.1955    0.2044 C   0  0  0  0  0  0  0  0  0  0  0  0
   -6.5808   -0.6702    1.1273 O   0  0  0  0  0  0  0  0  0  0  0  0
   -0.4637   -2.5344    0.4219 N   0  0  0  0  0  0  0  0  0  0  0  0
    0.3073   -3.4996    0.9685 N   0  0  0  0  0  0  0  0  0  0  0  0
    1.1886   -2.8848    1.7369 N   0  0  0  0  0  0  0  0  0  0  0  0
    0.9365   -1.5480    1.7872 N   0  0  0  0  0  0  0  0  0  0  0  0
   -0.1362   -1.3390    1.0452 C   0  0  0  0  0  0  0  0  0  0  0  0
   -1.0065   -0.1282    1.1483 C   0  0  2  0  0  0  0  0  0  0  0  0
   -1.5353   -0.1210    2.5213 N   0  0  0  0  0  0  0  0  0  0  0  0
   -0.3085    1.2125    0.7712 C   0  0  0  0  0  0  0  0  0  0  0  0
   -1.2419    2.2502    0.0000 C   0  0  0  0  0  0  0  0  0  0  0  0
   -2.6414    2.2181    0.7548 C   0  0  0  0  0  0  0  0  0  0  0  0
   -1.0399    3.2004    0.0000 C   0  0  0  0  0  0  0  0  0  0  0  0
   -0.9809   -6.2940    0.9058 H   0  0  0  0  0  0  0  0  0  0  0  0
   -0.8783   -7.9924    0.4154 H   0  0  0  0  0  0  0  0  0  0  0  0
   -2.1770   -6.9769   -0.2411 H   0  0  0  0  0  0  0  0  0  0  0  0
    0.8323   -4.8119   -0.8200 H   0  0  0  0  0  0  0  0  0  0  0  0
    0.2638   -5.0602   -2.4616 H   0  0  0  0  0  0  0  0  0  0  0  0
   -0.4200   -2.4210   -1.6020 H   0  0  0  0  0  0  0  0  0  0  0  0
   -3.9185   -3.2985   -1.5533 H   0  0  0  0  0  0  0  0  0  0  0  0
   -4.1678   -2.5055    1.3808 H   0  0  0  0  0  0  0  0  0  0  0  0
   -2.9201   -3.6239    0.9187 H   0  0  0  0  0  0  0  0  0  0  0  0
   -5.0170   -4.8271   -0.3901 H   0  0  0  0  0  0  0  0  0  0  0  0
   -5.8866   -4.0309    0.9444 H   0  0  0  0  0  0  0  0  0  0  0  0
   -5.0356   -6.1567    1.3547 H   0  0  0  0  0  0  0  0  0  0  0  0
   -4.1477    0.2684   -2.6110 H   0  0  0  0  0  0  0  0  0  0  0  0
   -4.7039    2.6633   -2.4536 H   0  0  0  0  0  0  0  0  0  0  0  0
   -6.1960    3.4869   -0.6499 H   0  0  0  0  0  0  0  0  0  0  0  0
   -7.0770    1.9201    1.0421 H   0  0  0  0  0  0  0  0  0  0  0  0
   -7.4344   -0.3153    1.4338 H   0  0  0  0  0  0  0  0  0  0  0  0
   -1.8617   -0.2747    0.5050 H   0  0  0  0  0  0  0  0  0  0  0  0
   -0.7472   -0.1038    3.1689 H   0  0  0  0  0  0  0  0  0  0  0  0
   -2.0641    0.7252    2.7099 H   0  0  0  0  0  0  0  0  0  0  0  0
    0.5586    1.0039    0.1269 H   0  0  0  0  0  0  0  0  0  0  0  0
    0.1027    1.6827    1.6773 H   0  0  0  0  0  0  0  0  0  0  0  0
   -1.4270    1.7218   -0.9553 H   0  0  0  0  0  0  0  0  0  0  0  0
   -3.3484    2.9534    0.3464 H   0  0  0  0  0  0  0  0  0  0  0  0
   -3.1460    1.2551    0.6858 H   0  0  0  0  0  0  0  0  0  0  0  0
   -2.5259    2.4789    1.8165 H   0  0  0  0  0  0  0  0  0  0  0  0
   -0.0047    3.1735   -0.4221 H   0  0  0  0  0  0  0  0  0  0  0  0
   -1.6845    3.5583   -0.8499 H   0  0  0  0  0  0  0  0  0  0  0  0
   -0.8174    4.2470    0.0000 H   0  0  0  0  0  0  0  0  0  0  0  0
  1  2  1  0  0  0  0
  1 34  1  0  0  0  0
  1 35  1  0  0  0  0
  1 36  1  0  0  0  0
  2  3  2  0  0  0  0
  2  4  1  0  0  0  0
  4  5  1  0  0  0  0
  4 37  1  0  0  0  0
  4 38  1  0  0  0  0
  5  6  2  0  0  0  0
  7  5  1  0  0  0  0
  7  8  1  0  0  0  0
  7 23  1  0  0  0  0
  7 39  1  6  0  0  0
  8  9  2  0  0  0  0
  8 10  1  0  0  0  0
 10 11  1  0  0  0  0
 10 14  1  0  0  0  0
 10 40  1  1  0  0  0
 11 12  1  0  0  0  0
 11 41  1  0  0  0  0
 11 42  1  0  0  0  0
 12 13  1  0  0  0  0
 12 43  1  0  0  0  0
 12 44  1  0  0  0  0
 13 45  1  0  0  0  0
 14 15  2  0  0  0  0
 14 16  1  0  0  0  0
 16 21  2  0  0  0  0
 16 17  1  0  0  0  0
 17 18  2  0  0  0  0
 17 46  1  0  0  0  0
 18 19  1  0  0  0  0
 18 47  1  0  0  0  0
 19 20  2  0  0  0  0
 19 48  1  0  0  0  0
 20 21  1  0  0  0  0
 20 49  1  0  0  0  0
 21 22  1  0  0  0  0
 22 50  1  0  0  0  0
 23 27  1  0  0  0  0
 23 24  1  0  0  0  0
 24 25  2  0  0  0  0
 25 26  1  0  0  0  0
 26 27  2  0  0  0  0
 27 28  1  0  0  0  0
 28 29  1  0  0  0  0
 28 30  1  0  0  0  0
 28 51  1  1  0  0  0
 29 52  1  0  0  0  0
 29 53  1  0  0  0  0
 30 31  1  0  0  0  0
 30 54  1  0  0  0  0
 30 55  1  0  0  0  0
 31 32  1  0  0  0  0
 31 33  1  0  0  0  0
 31 56  1  0  0  0  0
 32 57  1  0  0  0  0
 32 58  1  0  0  0  0
 32 59  1  0  0  0  0
 33 60  1  0  0  0  0
 33 61  1  0  0  0  0
 33 62  1  0  0  0  0
M  END
$$$$
