
 OpenBabel03202621382D

 55 56  0  0  1  0  0  0  0  0999 V2000
    6.1962    0.0000    0.0000 C   0  0  0  0  0  0  0  0  0  0  0  0
    5.3301    0.5000    0.0000 C   0  0  0  0  0  0  0  0  0  0  0  0
    4.8936    1.2809   -0.8501 O   0  0  0  0  0  0  0  0  0  0  0  0
    4.6857    0.4664    1.3738 C   0  0  0  0  0  0  0  0  0  0  0  0
    4.3267   -1.0197    1.4223 C   0  0  0  0  0  0  0  0  0  0  0  0
    4.4704   -1.6722    2.4445 O   0  0  0  0  0  0  0  0  0  0  0  0
    3.5981   -1.5000    0.0000 C   0  0  2  0  0  0  0  0  0  0  0  0
    3.7250   -1.2929   -1.4659 O   0  0  0  0  0  0  0  0  0  0  0  0
    3.5981   -2.5000    0.0000 C   0  0  0  0  0  0  0  0  0  0  0  0
    4.4939   -3.1103   -0.6614 O   0  0  0  0  0  0  0  0  0  0  0  0
    2.9948   -3.5410    0.9516 C   0  0  2  0  0  0  0  0  0  0  0  0
    1.6710   -3.2095    1.6069 C   0  0  0  0  0  0  0  0  0  0  0  0
    1.3779   -1.7030    1.6378 C   0  0  0  0  0  0  0  0  0  0  0  0
    1.0000   -1.0000    0.0000 N   0  0  0  0  0  0  0  0  0  0  0  0
    0.1340   -1.5000    0.0000 C   0  0  0  0  0  0  0  0  0  0  0  0
    1.0000    0.0000    0.0000 S   0  0  0  0  0  0  0  0  0  0  0  0
    2.0000    0.0000    0.0000 O   0  0  0  0  0  0  0  0  0  0  0  0
    1.0000    1.0000    0.0000 O   0  0  0  0  0  0  0  0  0  0  0  0
    0.0000    0.0000    0.0000 C   0  0  0  0  0  0  0  0  0  0  0  0
   -1.1414    0.1611    1.1668 C   0  0  0  0  0  0  0  0  0  0  0  0
   -2.3943    0.2143    0.6123 C   0  0  0  0  0  0  0  0  0  0  0  0
   -2.2909    0.4195   -0.7122 O   0  0  0  0  0  0  0  0  0  0  0  0
   -0.9877    0.4558   -1.0503 C   0  0  0  0  0  0  0  0  0  0  0  0
    2.9770   -4.9728    0.3564 C   0  0  0  0  0  0  0  0  0  0  0  0
    1.9364   -5.4623   -0.1179 O   0  0  0  0  0  0  0  0  0  0  0  0
    4.2288   -5.8244    0.3524 C   0  0  0  0  0  0  0  0  0  0  0  0
    5.4888   -5.3088    0.6987 C   0  0  0  0  0  0  0  0  0  0  0  0
    6.6506   -6.0861    0.5718 C   0  0  0  0  0  0  0  0  0  0  0  0
    6.5644   -7.4076    0.1662 C   0  0  0  0  0  0  0  0  0  0  0  0
    5.3115   -7.9609   -0.1151 C   0  0  0  0  0  0  0  0  0  0  0  0
    4.1630   -7.1686   -0.0399 C   0  0  0  0  0  0  0  0  0  0  0  0
    2.9922   -7.8010   -0.3712 O   0  0  0  0  0  0  0  0  0  0  0  0
    6.1199   -0.4421   -1.0218 H   0  0  0  0  0  0  0  0  0  0  0  0
    6.8699    0.8918    0.0035 H   0  0  0  0  0  0  0  0  0  0  0  0
    7.1229   -0.5350    0.0000 H   0  0  0  0  0  0  0  0  0  0  0  0
    3.7965    1.0976    1.4392 H   0  0  0  0  0  0  0  0  0  0  0  0
    5.3858    0.7351    2.1704 H   0  0  0  0  0  0  0  0  0  0  0  0
    3.5981   -0.4300    0.0000 H   0  0  0  0  0  0  0  0  0  0  0  0
    3.0695   -0.6103   -1.7146 H   0  0  0  0  0  0  0  0  0  0  0  0
    3.6773   -3.6437    1.8023 H   0  0  0  0  0  0  0  0  0  0  0  0
    1.6902   -3.5752    2.6437 H   0  0  0  0  0  0  0  0  0  0  0  0
    0.8418   -3.7957    1.1888 H   0  0  0  0  0  0  0  0  0  0  0  0
    0.4713   -1.5935    2.2580 H   0  0  0  0  0  0  0  0  0  0  0  0
    2.1244   -1.0989    2.1495 H   0  0  0  0  0  0  0  0  0  0  0  0
   -0.0646   -1.6677   -1.1724 H   0  0  0  0  0  0  0  0  0  0  0  0
    0.5094   -2.5560   -0.0974 H   0  0  0  0  0  0  0  0  0  0  0  0
   -0.7926   -2.0350    0.0000 H   0  0  0  0  0  0  0  0  0  0  0  0
   -0.9155    0.0868    2.2233 H   0  0  0  0  0  0  0  0  0  0  0  0
   -3.4012    0.1750    1.0068 H   0  0  0  0  0  0  0  0  0  0  0  0
   -0.7860    0.8014   -2.0594 H   0  0  0  0  0  0  0  0  0  0  0  0
    5.6288   -4.2787    1.0190 H   0  0  0  0  0  0  0  0  0  0  0  0
    7.6212   -5.6370    0.7738 H   0  0  0  0  0  0  0  0  0  0  0  0
    7.4560   -8.0076    0.0594 H   0  0  0  0  0  0  0  0  0  0  0  0
    5.2359   -9.0029   -0.4217 H   0  0  0  0  0  0  0  0  0  0  0  0
    2.2922   -7.1182   -0.4242 H   0  0  0  0  0  0  0  0  0  0  0  0
  1  2  1  0  0  0  0
  1 33  1  0  0  0  0
  1 34  1  0  0  0  0
  1 35  1  0  0  0  0
  2  3  2  0  0  0  0
  2  4  1  0  0  0  0
  4  5  1  0  0  0  0
  4 36  1  0  0  0  0
  4 37  1  0  0  0  0
  5  6  2  0  0  0  0
  5  7  1  0  0  0  0
  7  8  1  0  0  0  0
  7  9  1  0  0  0  0
  7 38  1  6  0  0  0
  8 39  1  0  0  0  0
  9 10  2  0  0  0  0
  9 11  1  0  0  0  0
 11 12  1  0  0  0  0
 11 24  1  0  0  0  0
 11 40  1  6  0  0  0
 12 13  1  0  0  0  0
 12 41  1  0  0  0  0
 12 42  1  0  0  0  0
 13 14  1  0  0  0  0
 13 43  1  0  0  0  0
 13 44  1  0  0  0  0
 14 15  1  0  0  0  0
 14 16  1  0  0  0  0
 15 45  1  0  0  0  0
 15 46  1  0  0  0  0
 15 47  1  0  0  0  0
 16 17  2  0  0  0  0
 16 18  2  0  0  0  0
 16 19  1  0  0  0  0
 19 23  2  0  0  0  0
 19 20  1  0  0  0  0
 20 21  2  0  0  0  0
 20 48  1  0  0  0  0
 21 22  1  0  0  0  0
 21 49  1  0  0  0  0
 22 23  1  0  0  0  0
 23 50  1  0  0  0  0
 24 25  2  0  0  0  0
 24 26  1  0  0  0  0
 26 31  2  0  0  0  0
 26 27  1  0  0  0  0
 27 28  2  0  0  0  0
 27 51  1  0  0  0  0
 28 29  1  0  0  0  0
 28 52  1  0  0  0  0
 29 30  2  0  0  0  0
 29 53  1  0  0  0  0
 30 31  1  0  0  0  0
 30 54  1  0  0  0  0
 31 32  1  0  0  0  0
 32 55  1  0  0  0  0
M  END
$$$$
