
 OpenBabel03202621302D

 29 29  0  0  1  0  0  0  0  0999 V2000
   -1.2601    1.2601    0.0000 C   0  0  0  0  0  0  0  0  0  0  0  0
   -0.3090    0.9511    0.0000 C   0  0  1  0  0  0  0  0  0  0  0  0
    0.8831    1.8076   -0.4784 C   0  0  0  0  0  0  0  0  0  0  0  0
    2.0799    1.0044   -0.2337 N   0  0  0  0  0  0  0  0  0  0  0  0
    3.3977    1.3494   -0.0140 C   0  0  0  0  0  0  0  0  0  0  0  0
    4.2312    0.4650    0.2199 O   0  0  0  0  0  0  0  0  0  0  0  0
    3.9156    2.7867   -0.1108 C   0  0  0  0  0  0  0  0  0  0  0  0
    2.8909    3.8740    0.0667 C   0  0  0  0  0  0  0  0  0  0  0  0
    3.4660    5.5801    0.1435 S   0  0  0  0  0  0  0  0  0  0  0  0
    1.8565    6.3045    0.2055 C   0  0  0  0  0  0  0  0  0  0  0  0
    1.6952    7.5123    0.2382 O   0  0  0  0  0  0  0  0  0  0  0  0
    1.7085   -0.4055   -0.1571 C   0  0  0  0  0  0  0  0  0  0  0  0
    0.2027   -0.4607   -0.4618 C   0  0  2  0  0  0  0  0  0  0  0  0
   -0.4051   -1.5222    0.2676 O   0  0  0  0  0  0  0  0  0  0  0  0
   -1.2349    2.0550   -0.7821 H   0  0  0  0  0  0  0  0  0  0  0  0
   -1.7835    0.4002   -0.4736 H   0  0  0  0  0  0  0  0  0  0  0  0
   -2.2777    1.5907    0.0000 H   0  0  0  0  0  0  0  0  0  0  0  0
   -0.0819    0.8759    1.0826 H   0  0  0  0  0  0  0  0  0  0  0  0
    0.8631    2.7237    0.1020 H   0  0  0  0  0  0  0  0  0  0  0  0
    0.8467    2.0290   -1.5520 H   0  0  0  0  0  0  0  0  0  0  0  0
    4.4225    2.8859   -1.0769 H   0  0  0  0  0  0  0  0  0  0  0  0
    4.6755    2.8887    0.6759 H   0  0  0  0  0  0  0  0  0  0  0  0
    2.3342    3.6993    0.9930 H   0  0  0  0  0  0  0  0  0  0  0  0
    2.2306    3.8592   -0.8034 H   0  0  0  0  0  0  0  0  0  0  0  0
    0.9881    5.6203    0.2035 H   0  0  0  0  0  0  0  0  0  0  0  0
    2.2896   -0.9943   -0.8743 H   0  0  0  0  0  0  0  0  0  0  0  0
    1.9340   -0.7789    0.8499 H   0  0  0  0  0  0  0  0  0  0  0  0
    0.0370   -0.6159   -1.5356 H   0  0  0  0  0  0  0  0  0  0  0  0
   -1.3353   -1.5925   -0.0059 H   0  0  0  0  0  0  0  0  0  0  0  0
  1 15  1  0  0  0  0
  1 16  1  0  0  0  0
  1 17  1  0  0  0  0
  2  1  1  0  0  0  0
  2  3  1  0  0  0  0
  2 13  1  0  0  0  0
  2 18  1  6  0  0  0
  3  4  1  0  0  0  0
  3 19  1  0  0  0  0
  3 20  1  0  0  0  0
  4  5  1  0  0  0  0
  4 12  1  0  0  0  0
  5  6  2  0  0  0  0
  5  7  1  0  0  0  0
  7  8  1  0  0  0  0
  7 21  1  0  0  0  0
  7 22  1  0  0  0  0
  8  9  1  0  0  0  0
  8 23  1  0  0  0  0
  8 24  1  0  0  0  0
  9 10  1  0  0  0  0
 10 11  2  0  0  0  0
 10 25  1  0  0  0  0
 12 13  1  0  0  0  0
 12 26  1  0  0  0  0
 12 27  1  0  0  0  0
 13 14  1  0  0  0  0
 13 28  1  1  0  0  0
 14 29  1  0  0  0  0
M  END
$$$$
