
 OpenBabel03202621372D

 30 30  0  0  1  0  0  0  0  0999 V2000
   -3.4641   -3.0000    0.0000 C   0  0  0  0  0  0  0  0  0  0  0  0
   -2.5981   -3.5000    0.0000 O   0  0  0  0  0  0  0  0  0  0  0  0
   -1.3408   -3.2937    0.4064 C   0  0  1  0  0  0  0  0  0  0  0  0
   -0.4677   -3.9891   -0.4506 O   0  0  0  0  0  0  0  0  0  0  0  0
   -1.7321   -2.0000    0.0000 C   0  0  0  0  0  0  0  0  0  0  0  0
   -2.2321   -1.1340    0.0000 C   0  0  0  0  0  0  0  0  0  0  0  0
   -2.7321   -2.0000    0.0000 C   0  0  0  0  0  0  0  0  0  0  0  0
   -0.8261   -1.3524    1.3437 O   0  0  0  0  0  0  0  0  0  0  0  0
   -0.2305    0.0015    1.2234 C   0  0  0  0  0  0  0  0  0  0  0  0
   -1.0528    1.0594    1.4457 C   0  0  0  0  0  0  0  0  0  0  0  0
   -0.9146    2.3103    0.6186 C   0  0  0  0  0  0  0  0  0  0  0  0
    0.3886    2.6104    0.1381 O   0  0  0  0  0  0  0  0  0  0  0  0
    1.1922    1.5105   -0.0315 C   0  0  0  0  0  0  0  0  0  0  0  0
    0.9711    0.2536    0.4115 C   0  0  0  0  0  0  0  0  0  0  0  0
    1.7003   -0.7768    0.2769 O   0  5  0  0  0  0  0  0  0  0  0  0
   -3.9602   -3.5583    0.8953 H   0  0  0  0  0  0  0  0  0  0  0  0
   -3.9947   -3.6262   -0.8201 H   0  0  0  0  0  0  0  0  0  0  0  0
   -4.3907   -2.4650    0.0000 H   0  0  0  0  0  0  0  0  0  0  0  0
   -1.1842   -3.5524    1.4634 H   0  0  0  0  0  0  0  0  0  0  0  0
    0.0933   -4.5239    0.1318 H   0  0  0  0  0  0  0  0  0  0  0  0
   -1.3391   -0.4913   -0.3151 H   0  0  0  0  0  0  0  0  0  0  0  0
   -2.2670   -0.6965   -1.2009 H   0  0  0  0  0  0  0  0  0  0  0  0
   -2.7671   -0.2074    0.0000 H   0  0  0  0  0  0  0  0  0  0  0  0
   -3.1748   -1.6999    1.3154 H   0  0  0  0  0  0  0  0  0  0  0  0
   -3.1333   -1.9406   -1.3691 H   0  0  0  0  0  0  0  0  0  0  0  0
   -3.8021   -2.0000    0.0000 H   0  0  0  0  0  0  0  0  0  0  0  0
   -2.0164    0.8984    1.9090 H   0  0  0  0  0  0  0  0  0  0  0  0
   -1.5715    2.2226   -0.2625 H   0  0  0  0  0  0  0  0  0  0  0  0
   -1.2770    3.1834    1.1732 H   0  0  0  0  0  0  0  0  0  0  0  0
    2.0807    1.7899   -0.5856 H   0  0  0  0  0  0  0  0  0  0  0  0
  1  2  1  0  0  0  0
  1 16  1  0  0  0  0
  1 17  1  0  0  0  0
  1 18  1  0  0  0  0
  2  3  1  0  0  0  0
  3  4  1  0  0  0  0
  3  5  1  0  0  0  0
  3 19  1  1  0  0  0
  4 20  1  0  0  0  0
  5  6  1  0  0  0  0
  5  7  1  0  0  0  0
  5  8  1  0  0  0  0
  6 21  1  0  0  0  0
  6 22  1  0  0  0  0
  6 23  1  0  0  0  0
  7 24  1  0  0  0  0
  7 25  1  0  0  0  0
  7 26  1  0  0  0  0
  8  9  1  0  0  0  0
  9 14  1  0  0  0  0
  9 10  2  0  0  0  0
 10 11  1  0  0  0  0
 10 27  1  0  0  0  0
 11 12  1  0  0  0  0
 11 28  1  0  0  0  0
 11 29  1  0  0  0  0
 12 13  1  0  0  0  0
 13 14  2  0  0  0  0
 13 30  1  0  0  0  0
 14 15  1  0  0  0  0
M  CHG  1  15  -1
M  END
$$$$
