
 OpenBabel03202621282D

 37 39  0  0  1  0  0  0  0  0999 V2000
   -0.9706   -4.4945    0.0000 C   0  0  0  0  0  0  0  0  0  0  0  0
   -0.1045   -3.9945    0.0000 C   0  0  0  0  0  0  0  0  0  0  0  0
    0.7615   -4.4945    0.0000 O   0  0  0  0  0  0  0  0  0  0  0  0
   -0.1045   -2.9945    0.0000 C   0  0  0  0  0  0  0  0  0  0  0  0
   -0.9706   -2.4945    0.0000 C   0  0  0  0  0  0  0  0  0  0  0  0
   -1.8366   -2.9945    0.0000 O   0  0  0  0  0  0  0  0  0  0  0  0
   -0.9706   -1.4945    0.0000 C   0  0  1  0  0  0  0  0  0  0  0  0
   -1.8366   -0.9945    0.0000 C   0  0  0  0  0  0  0  0  0  0  0  0
   -1.8366    0.0055    0.0000 O   0  0  0  0  0  0  0  0  0  0  0  0
   -2.7026   -1.4945    0.0000 C   0  0  2  0  0  0  0  0  0  0  0  0
   -2.7026   -2.4945    0.0000 C   0  0  0  0  0  0  0  0  0  0  0  0
   -3.5686   -2.9945    0.0000 C   0  0  0  0  0  0  0  0  0  0  0  0
   -3.5686   -3.9945    0.0000 O   0  0  0  0  0  0  0  0  0  0  0  0
   -3.5686   -0.9945    0.0000 C   0  0  0  0  0  0  0  0  0  0  0  0
   -4.4347   -1.4945    0.0000 O   0  0  0  0  0  0  0  0  0  0  0  0
   -3.5686    0.0055    0.0000 C   0  0  0  0  0  0  0  0  0  0  0  0
   -2.7026    0.5055    0.0000 C   0  0  0  0  0  0  0  0  0  0  0  0
   -2.7026    1.5055    0.0000 C   0  0  0  0  0  0  0  0  0  0  0  0
   -3.5686    2.0055    0.0000 C   0  0  0  0  0  0  0  0  0  0  0  0
   -4.4347    1.5055    0.0000 C   0  0  0  0  0  0  0  0  0  0  0  0
   -4.4347    0.5055    0.0000 C   0  0  0  0  0  0  0  0  0  0  0  0
   -5.3007    0.0055    0.0000 O   0  5  0  0  0  0  0  0  0  0  0  0
   -0.1045   -0.9945    0.0000 N   0  0  0  0  0  0  0  0  0  0  0  0
    0.8090   -1.4013    0.0000 C   0  0  0  0  0  0  0  0  0  0  0  0
    1.0169   -2.3794    0.0000 O   0  0  0  0  0  0  0  0  0  0  0  0
    1.4781   -0.6581    0.0000 N   0  0  0  0  0  0  0  0  0  0  0  0
    0.9781    0.2079    0.0000 C   0  0  0  0  0  0  0  0  0  0  0  0
    1.3849    1.1215    0.0000 C   0  0  0  0  0  0  0  0  0  0  0  0
    2.3794    1.2260    0.0000 C   0  0  0  0  0  0  0  0  0  0  0  0
    2.8794    2.0920    0.0000 C   0  0  0  0  0  0  0  0  0  0  0  0
    3.8576    1.8841    0.0000 N   0  0  0  0  0  0  0  0  0  0  0  0
    3.9621    0.8896    0.0000 N   0  0  0  0  0  0  0  0  0  0  0  0
    4.8281    0.3896    0.0000 C   0  0  0  0  0  0  0  0  0  0  0  0
    3.0485    0.4828    0.0000 C   0  0  0  0  0  0  0  0  0  0  0  0
    2.8406   -0.4953    0.0000 C   0  0  0  0  0  0  0  0  0  0  0  0
   -0.0000   -0.0000    0.0000 C   0  0  0  0  0  0  0  0  0  0  0  0
   -0.7431    0.6691    0.0000 O   0  0  0  0  0  0  0  0  0  0  0  0
  1  2  1  0  0  0  0
  2  3  2  0  0  0  0
  2  4  1  0  0  0  0
  4  5  1  0  0  0  0
  5  6  2  0  0  0  0
  7  5  1  1  0  0  0
  7  8  1  0  0  0  0
  7 23  1  0  0  0  0
  8  9  2  0  0  0  0
  8 10  1  0  0  0  0
 10 11  1  6  0  0  0
 10 14  1  0  0  0  0
 11 12  1  0  0  0  0
 12 13  1  0  0  0  0
 14 15  2  0  0  0  0
 14 16  1  0  0  0  0
 16 21  2  0  0  0  0
 16 17  1  0  0  0  0
 17 18  2  0  0  0  0
 18 19  1  0  0  0  0
 19 20  2  0  0  0  0
 20 21  1  0  0  0  0
 21 22  1  0  0  0  0
 23 36  1  0  0  0  0
 23 24  1  0  0  0  0
 24 25  2  0  0  0  0
 24 26  1  0  0  0  0
 26 27  1  0  0  0  0
 27 28  2  3  0  0  0
 27 36  1  0  0  0  0
 28 29  1  0  0  0  0
 29 34  2  0  0  0  0
 29 30  1  0  0  0  0
 30 31  2  0  0  0  0
 31 32  1  0  0  0  0
 32 33  1  0  0  0  0
 32 34  1  0  0  0  0
 34 35  1  0  0  0  0
 36 37  2  0  0  0  0
M  CHG  1  22  -1
M  END
$$$$
