
 OpenBabel03202621292D

 29 30  0  0  1  0  0  0  0  0999 V2000
    4.3249    1.2168   -0.3424 O   0  0  0  0  0  0  0  0  0  0  0  0
    4.2480   -0.0015   -0.1627 C   0  0  0  0  0  0  0  0  0  0  0  0
    5.4956   -0.8538   -0.1736 C   0  0  0  0  0  0  0  0  0  0  0  0
    5.1305   -2.3219   -0.1143 C   0  0  0  0  0  0  0  0  0  0  0  0
    4.0756   -2.5613   -1.0361 O   0  0  0  0  0  0  0  0  0  0  0  0
    2.8237   -2.0021   -0.6080 C   0  0  0  0  0  0  0  0  0  0  0  0
    2.9269   -0.6893    0.1988 C   0  0  3  0  0  0  0  0  0  0  0  0
    3.0452   -0.9793    1.6088 O   0  0  0  0  0  0  0  0  0  0  0  0
    1.7268    0.2667   -0.0221 C   0  0  0  0  0  0  0  0  0  0  0  0
    0.3025   -0.2503    0.0980 C   0  0  0  0  0  0  0  0  0  0  0  0
   -0.0206   -1.4357    0.8770 C   0  0  0  0  0  0  0  0  0  0  0  0
   -1.2683   -1.9197    0.8948 C   0  0  0  0  0  0  0  0  0  0  0  0
   -2.2731   -1.2714    0.2271 N   0  0  0  0  0  0  0  0  0  0  0  0
   -2.0961   -0.0992   -0.4654 C   0  0  0  0  0  0  0  0  0  0  0  0
   -3.0144    0.4987   -1.0080 O   0  0  0  0  0  0  0  0  0  0  0  0
   -0.6986    0.4010   -0.5280 C   0  0  0  0  0  0  0  0  0  0  0  0
    6.1349   -0.5813    0.6707 H   0  0  0  0  0  0  0  0  0  0  0  0
    6.0219   -0.6421   -1.1109 H   0  0  0  0  0  0  0  0  0  0  0  0
    5.9901   -2.9302   -0.4142 H   0  0  0  0  0  0  0  0  0  0  0  0
    4.8397   -2.6490    0.8909 H   0  0  0  0  0  0  0  0  0  0  0  0
    2.3307   -2.7799   -0.0165 H   0  0  0  0  0  0  0  0  0  0  0  0
    2.2363   -1.8555   -1.5210 H   0  0  0  0  0  0  0  0  0  0  0  0
    3.0479   -0.1254    2.0817 H   0  0  0  0  0  0  0  0  0  0  0  0
    1.8156    1.1035    0.6858 H   0  0  0  0  0  0  0  0  0  0  0  0
    1.8334    0.7057   -1.0256 H   0  0  0  0  0  0  0  0  0  0  0  0
    0.7480   -1.9415    1.4507 H   0  0  0  0  0  0  0  0  0  0  0  0
   -1.5414   -2.8174    1.4408 H   0  0  0  0  0  0  0  0  0  0  0  0
   -3.2217   -1.6234    0.2609 H   0  0  0  0  0  0  0  0  0  0  0  0
   -0.5526    1.3077   -1.1023 H   0  0  0  0  0  0  0  0  0  0  0  0
  1  2  2  0  0  0  0
  2  7  1  0  0  0  0
  2  3  1  0  0  0  0
  3  4  1  0  0  0  0
  3 17  1  0  0  0  0
  3 18  1  0  0  0  0
  4  5  1  0  0  0  0
  4 19  1  0  0  0  0
  4 20  1  0  0  0  0
  5  6  1  0  0  0  0
  6  7  1  0  0  0  0
  6 21  1  0  0  0  0
  6 22  1  0  0  0  0
  7  8  1  0  0  0  0
  7  9  1  0  0  0  0
  8 23  1  0  0  0  0
  9 10  1  0  0  0  0
  9 24  1  0  0  0  0
  9 25  1  0  0  0  0
 10 16  2  0  0  0  0
 10 11  1  0  0  0  0
 11 12  2  0  0  0  0
 11 26  1  0  0  0  0
 12 13  1  0  0  0  0
 12 27  1  0  0  0  0
 13 14  1  0  0  0  0
 13 28  1  0  0  0  0
 14 15  2  0  0  0  0
 14 16  1  0  0  0  0
 16 29  1  0  0  0  0
M  END
$$$$
