
 OpenBabel03202621402D

 57 58  0  0  1  0  0  0  0  0999 V2000
   -3.4641    5.0000    0.0000 C   0  0  0  0  0  0  0  0  0  0  0  0
   -4.3301    4.5000    0.0000 C   0  0  0  0  0  0  0  0  0  0  0  0
   -5.4552    5.0261   -0.0829 O   0  0  0  0  0  0  0  0  0  0  0  0
   -4.3613    3.0341    0.2119 C   0  0  0  0  0  0  0  0  0  0  0  0
   -3.6473    2.3224   -0.8884 C   0  0  0  0  0  0  0  0  0  0  0  0
   -3.1766    2.9035   -1.8637 O   0  0  0  0  0  0  0  0  0  0  0  0
   -3.4408    0.8476   -0.6498 C   0  0  2  0  0  0  0  0  0  0  0  0
   -4.4948   -0.0132   -1.0779 O   0  0  0  0  0  0  0  0  0  0  0  0
   -5.5824    0.5491   -1.6826 C   0  0  0  0  0  0  0  0  0  0  0  0
   -5.5195    1.4750   -2.4747 O   0  0  0  0  0  0  0  0  0  0  0  0
   -6.9101    0.0300   -1.1713 C   0  0  2  0  0  0  0  0  0  0  0  0
   -6.7925   -0.9148    0.0190 C   0  0  0  0  0  0  0  0  0  0  0  0
   -8.0985   -1.3085    0.5684 N   0  0  0  0  0  0  0  0  0  0  0  0
   -9.0606   -0.4720    0.4276 C   0  0  0  0  0  0  0  0  0  0  0  0
  -10.2952   -0.7352    0.9009 N   0  0  0  0  0  0  0  0  0  0  0  0
   -9.0288    0.7195   -0.2129 N   0  0  0  0  0  0  0  0  0  0  0  0
   -7.7644    1.2174   -0.7139 C   0  0  0  0  0  0  0  0  0  0  0  0
   -1.9400    0.5686   -0.9132 C   0  0  0  0  0  0  0  0  0  0  0  0
   -1.5675   -0.1524   -1.8353 O   0  0  0  0  0  0  0  0  0  0  0  0
   -0.9352    1.2092    0.1091 C   0  0  2  0  0  0  0  0  0  0  0  0
   -0.6979    2.7077   -0.2104 C   0  0  0  0  0  0  0  0  0  0  0  0
    0.5231    3.4444    0.3315 C   0  0  0  0  0  0  0  0  0  0  0  0
    1.6420    3.2405   -0.5108 O   0  0  0  0  0  0  0  0  0  0  0  0
    0.3203    0.3633    0.2914 C   0  0  0  0  0  0  0  0  0  0  0  0
    1.4500    0.8385    0.4143 O   0  0  0  0  0  0  0  0  0  0  0  0
    0.1918   -1.1139    0.3859 C   0  0  0  0  0  0  0  0  0  0  0  0
   -0.9788   -1.7220    0.8618 C   0  0  0  0  0  0  0  0  0  0  0  0
   -1.1349   -3.1033    0.7577 C   0  0  0  0  0  0  0  0  0  0  0  0
   -0.1088   -3.8811    0.2190 C   0  0  0  0  0  0  0  0  0  0  0  0
    1.0894   -3.2868   -0.1773 C   0  0  0  0  0  0  0  0  0  0  0  0
    1.2436   -1.9089   -0.0830 C   0  0  0  0  0  0  0  0  0  0  0  0
    2.4475   -1.3997   -0.4796 O   0  0  0  0  0  0  0  0  0  0  0  0
   -3.6001    5.5324   -0.9718 H   0  0  0  0  0  0  0  0  0  0  0  0
   -3.6674    5.6456    0.8877 H   0  0  0  0  0  0  0  0  0  0  0  0
   -2.5375    5.5350    0.0000 H   0  0  0  0  0  0  0  0  0  0  0  0
   -3.8857    2.8103    1.1752 H   0  0  0  0  0  0  0  0  0  0  0  0
   -5.3919    2.6854    0.2604 H   0  0  0  0  0  0  0  0  0  0  0  0
   -3.4941    0.7101    0.4389 H   0  0  0  0  0  0  0  0  0  0  0  0
   -7.4039   -0.4880   -2.0018 H   0  0  0  0  0  0  0  0  0  0  0  0
   -6.2612   -1.8225   -0.2867 H   0  0  0  0  0  0  0  0  0  0  0  0
   -6.2023   -0.4625    0.8272 H   0  0  0  0  0  0  0  0  0  0  0  0
  -11.0227   -0.5009    0.2364 H   0  0  0  0  0  0  0  0  0  0  0  0
  -10.3629   -1.7098    1.1774 H   0  0  0  0  0  0  0  0  0  0  0  0
   -9.6296    1.4252    0.2028 H   0  0  0  0  0  0  0  0  0  0  0  0
   -7.2734    1.7707    0.0934 H   0  0  0  0  0  0  0  0  0  0  0  0
   -7.9476    1.9304   -1.5247 H   0  0  0  0  0  0  0  0  0  0  0  0
   -1.4177    1.1800    1.0974 H   0  0  0  0  0  0  0  0  0  0  0  0
   -0.7416    2.8633   -1.2938 H   0  0  0  0  0  0  0  0  0  0  0  0
   -1.5436    3.2400    0.2320 H   0  0  0  0  0  0  0  0  0  0  0  0
    0.3215    4.5222    0.3207 H   0  0  0  0  0  0  0  0  0  0  0  0
    0.7652    3.1714    1.3630 H   0  0  0  0  0  0  0  0  0  0  0  0
    1.9559    2.3305   -0.3297 H   0  0  0  0  0  0  0  0  0  0  0  0
   -1.7930   -1.1509    1.2919 H   0  0  0  0  0  0  0  0  0  0  0  0
   -2.0625   -3.5737    1.0738 H   0  0  0  0  0  0  0  0  0  0  0  0
   -0.2423   -4.9528    0.1078 H   0  0  0  0  0  0  0  0  0  0  0  0
    1.8956   -3.8962   -0.5812 H   0  0  0  0  0  0  0  0  0  0  0  0
    2.4812   -0.4521   -0.2261 H   0  0  0  0  0  0  0  0  0  0  0  0
  1  2  1  0  0  0  0
  1 33  1  0  0  0  0
  1 34  1  0  0  0  0
  1 35  1  0  0  0  0
  2  3  2  0  0  0  0
  2  4  1  0  0  0  0
  4  5  1  0  0  0  0
  4 36  1  0  0  0  0
  4 37  1  0  0  0  0
  5  6  2  0  0  0  0
  7  5  1  0  0  0  0
  7  8  1  0  0  0  0
  7 18  1  0  0  0  0
  7 38  1  6  0  0  0
  8  9  1  0  0  0  0
  9 10  2  0  0  0  0
 11  9  1  0  0  0  0
 11 12  1  0  0  0  0
 11 17  1  0  0  0  0
 11 39  1  1  0  0  0
 12 13  1  0  0  0  0
 12 40  1  0  0  0  0
 12 41  1  0  0  0  0
 13 14  2  0  0  0  0
 14 15  1  0  0  0  0
 14 16  1  0  0  0  0
 15 42  1  0  0  0  0
 15 43  1  0  0  0  0
 16 17  1  0  0  0  0
 16 44  1  0  0  0  0
 17 45  1  0  0  0  0
 17 46  1  0  0  0  0
 18 19  2  0  0  0  0
 18 20  1  0  0  0  0
 20 21  1  0  0  0  0
 20 24  1  0  0  0  0
 20 47  1  1  0  0  0
 21 22  1  0  0  0  0
 21 48  1  0  0  0  0
 21 49  1  0  0  0  0
 22 23  1  0  0  0  0
 22 50  1  0  0  0  0
 22 51  1  0  0  0  0
 23 52  1  0  0  0  0
 24 25  2  0  0  0  0
 24 26  1  0  0  0  0
 26 31  2  0  0  0  0
 26 27  1  0  0  0  0
 27 28  2  0  0  0  0
 27 53  1  0  0  0  0
 28 29  1  0  0  0  0
 28 54  1  0  0  0  0
 29 30  2  0  0  0  0
 29 55  1  0  0  0  0
 30 31  1  0  0  0  0
 30 56  1  0  0  0  0
 31 32  1  0  0  0  0
 32 57  1  0  0  0  0
M  END
$$$$
