
 OpenBabel03202621322D

 45 45  0  0  0  0  0  0  0  0999 V2000
    0.8090    1.5878    0.0000 C   0  0  0  0  0  0  0  0  0  0  0  0
    0.8090    0.5878    0.0000 C   0  0  0  0  0  0  0  0  0  0  0  0
    1.1179    0.4933   -1.4110 C   0  0  0  0  0  0  0  0  0  0  0  0
    1.4321   -0.7989   -1.5257 N   0  0  0  0  0  0  0  0  0  0  0  0
    2.8739   -0.9999   -1.4453 C   0  0  0  0  0  0  0  0  0  0  0  0
    3.5091   -0.5987   -0.0444 C   0  0  0  0  0  0  0  0  0  0  0  0
    3.6389   -1.4277    1.1829 N   0  0  0  0  0  0  0  0  0  0  0  0
    2.6673   -2.4301    1.6415 C   0  0  0  0  0  0  0  0  0  0  0  0
    1.9493   -3.0859    0.4956 C   0  0  0  0  0  0  0  0  0  0  0  0
    1.6711   -4.3962    0.0000 N   0  0  0  0  0  0  0  0  0  0  0  0
    0.6766   -4.5007    0.0000 C   0  0  0  0  0  0  0  0  0  0  0  0
    2.2589   -5.2052    0.0000 C   0  0  0  0  0  0  0  0  0  0  0  0
    4.9036   -2.0883    1.1657 C   0  0  0  0  0  0  0  0  0  0  0  0
    5.0614   -3.1691    0.0000 C   0  0  0  0  0  0  0  0  0  0  0  0
    4.6547   -4.0826    0.0000 C   0  0  0  0  0  0  0  0  0  0  0  0
    6.0559   -3.0645    0.0000 C   0  0  0  0  0  0  0  0  0  0  0  0
    0.4624   -1.3854   -0.7932 N   0  0  0  0  0  0  0  0  0  0  0  0
    0.1519   -0.5573    0.2331 N   0  0  0  0  0  0  0  0  0  0  0  0
    1.3779    1.7432    0.9481 H   0  0  0  0  0  0  0  0  0  0  0  0
   -0.2690    1.7682    0.2510 H   0  0  0  0  0  0  0  0  0  0  0  0
    0.8090    2.6578    0.0000 H   0  0  0  0  0  0  0  0  0  0  0  0
    1.4731    1.2290   -2.1279 H   0  0  0  0  0  0  0  0  0  0  0  0
    3.1284   -1.9714   -1.8859 H   0  0  0  0  0  0  0  0  0  0  0  0
    3.3021   -0.2994   -2.1821 H   0  0  0  0  0  0  0  0  0  0  0  0
    3.0960    0.3464    0.3163 H   0  0  0  0  0  0  0  0  0  0  0  0
    4.5129   -0.2394   -0.3188 H   0  0  0  0  0  0  0  0  0  0  0  0
    3.0986   -3.1821    2.3091 H   0  0  0  0  0  0  0  0  0  0  0  0
    1.9495   -1.8988    2.2708 H   0  0  0  0  0  0  0  0  0  0  0  0
    2.3898   -2.7137   -0.4059 H   0  0  0  0  0  0  0  0  0  0  0  0
    0.9805   -2.6351    0.7186 H   0  0  0  0  0  0  0  0  0  0  0  0
    0.4026   -4.7813    1.0609 H   0  0  0  0  0  0  0  0  0  0  0  0
    0.4015   -5.2492   -0.8015 H   0  0  0  0  0  0  0  0  0  0  0  0
   -0.3875   -4.6125    0.0000 H   0  0  0  0  0  0  0  0  0  0  0  0
    1.9431   -5.8621    0.8606 H   0  0  0  0  0  0  0  0  0  0  0  0
    2.2241   -5.5882   -1.0551 H   0  0  0  0  0  0  0  0  0  0  0  0
    2.8878   -6.0708    0.0000 H   0  0  0  0  0  0  0  0  0  0  0  0
    5.1431   -2.5035    2.1605 H   0  0  0  0  0  0  0  0  0  0  0  0
    5.6532   -1.2716    1.0757 H   0  0  0  0  0  0  0  0  0  0  0  0
    4.6470   -2.6401   -0.8601 H   0  0  0  0  0  0  0  0  0  0  0  0
    4.7528   -4.4395    1.0657 H   0  0  0  0  0  0  0  0  0  0  0  0
    5.1915   -4.6963   -0.7899 H   0  0  0  0  0  0  0  0  0  0  0  0
    4.2195   -5.0601    0.0000 H   0  0  0  0  0  0  0  0  0  0  0  0
    6.3711   -3.2795   -1.0686 H   0  0  0  0  0  0  0  0  0  0  0  0
    6.4845   -3.7956    0.7661 H   0  0  0  0  0  0  0  0  0  0  0  0
    7.1200   -2.9526    0.0000 H   0  0  0  0  0  0  0  0  0  0  0  0
  1  2  1  0  0  0  0
  1 19  1  0  0  0  0
  1 20  1  0  0  0  0
  1 21  1  0  0  0  0
  2 18  1  0  0  0  0
  2  3  2  0  0  0  0
  3  4  1  0  0  0  0
  3 22  1  0  0  0  0
  4  5  1  0  0  0  0
  4 17  1  0  0  0  0
  5  6  1  0  0  0  0
  5 23  1  0  0  0  0
  5 24  1  0  0  0  0
  6  7  1  0  0  0  0
  6 25  1  0  0  0  0
  6 26  1  0  0  0  0
  7  8  1  0  0  0  0
  7 13  1  0  0  0  0
  8  9  1  0  0  0  0
  8 27  1  0  0  0  0
  8 28  1  0  0  0  0
  9 10  1  0  0  0  0
  9 29  1  0  0  0  0
  9 30  1  0  0  0  0
 10 11  1  0  0  0  0
 10 12  1  0  0  0  0
 11 31  1  0  0  0  0
 11 32  1  0  0  0  0
 11 33  1  0  0  0  0
 12 34  1  0  0  0  0
 12 35  1  0  0  0  0
 12 36  1  0  0  0  0
 13 14  1  0  0  0  0
 13 37  1  0  0  0  0
 13 38  1  0  0  0  0
 14 15  1  0  0  0  0
 14 16  1  0  0  0  0
 14 39  1  0  0  0  0
 15 40  1  0  0  0  0
 15 41  1  0  0  0  0
 15 42  1  0  0  0  0
 16 43  1  0  0  0  0
 16 44  1  0  0  0  0
 16 45  1  0  0  0  0
 17 18  2  0  0  0  0
M  END
$$$$
