
 OpenBabel03202621312D

 40 40  0  0  1  0  0  0  0  0999 V2000
    2.5981   -1.5000    0.0000 C   0  0  0  0  0  0  0  0  0  0  0  0
    2.5981   -0.5000    0.0000 C   0  0  0  0  0  0  0  0  0  0  0  0
    1.7000   -0.1909   -1.1438 N   0  0  0  0  0  0  0  0  0  0  0  0
    1.6640    1.2992   -1.1599 C   0  0  0  0  0  0  0  0  0  0  0  0
    1.5483    2.0456    0.2750 C   0  0  2  0  0  0  0  0  0  0  0  0
    1.3925    3.4653    0.0828 O   0  0  0  0  0  0  0  0  0  0  0  0
    0.4095    1.4937    1.2011 C   0  0  0  0  0  0  0  0  0  0  0  0
   -0.8660    1.5000    0.0000 S   0  0  0  0  0  0  0  0  0  0  0  0
   -1.7321    1.0000    0.0000 C   0  0  0  0  0  0  0  0  0  0  0  0
    0.3963   -1.0120   -1.2479 C   0  0  0  0  0  0  0  0  0  0  0  0
    0.3986   -2.5945   -1.2821 C   0  0  0  0  0  0  0  0  0  0  0  0
   -0.9984   -3.2174   -1.1063 C   0  0  0  0  0  0  0  0  0  0  0  0
   -2.1333   -2.2637   -1.4110 C   0  0  0  0  0  0  0  0  0  0  0  0
   -1.8025   -1.3786   -2.5990 C   0  0  0  0  0  0  0  0  0  0  0  0
   -0.4419   -0.6503   -2.5046 C   0  0  0  0  0  0  0  0  0  0  0  0
    1.9297   -1.7052    0.8821 H   0  0  0  0  0  0  0  0  0  0  0  0
    3.6388   -1.6949    0.3678 H   0  0  0  0  0  0  0  0  0  0  0  0
    2.5981   -2.5700    0.0000 H   0  0  0  0  0  0  0  0  0  0  0  0
    3.5439   -0.0020   -0.2909 H   0  0  0  0  0  0  0  0  0  0  0  0
    2.3867    0.0039    0.9466 H   0  0  0  0  0  0  0  0  0  0  0  0
    2.6235    1.6346   -1.5836 H   0  0  0  0  0  0  0  0  0  0  0  0
    0.9592    1.6970   -1.8989 H   0  0  0  0  0  0  0  0  0  0  0  0
    2.5069    1.9723    0.8066 H   0  0  0  0  0  0  0  0  0  0  0  0
    1.9503    3.7274   -0.6667 H   0  0  0  0  0  0  0  0  0  0  0  0
    0.5813    0.4962    1.6041 H   0  0  0  0  0  0  0  0  0  0  0  0
    0.1957    2.1936    2.0142 H   0  0  0  0  0  0  0  0  0  0  0  0
   -2.2899    1.6247   -0.7230 H   0  0  0  0  0  0  0  0  0  0  0  0
   -2.0997    1.2521    1.0145 H   0  0  0  0  0  0  0  0  0  0  0  0
   -2.6588    0.4650    0.0000 H   0  0  0  0  0  0  0  0  0  0  0  0
   -0.1404   -0.8398   -0.3210 H   0  0  0  0  0  0  0  0  0  0  0  0
    0.8553   -2.9469   -2.2133 H   0  0  0  0  0  0  0  0  0  0  0  0
    0.9396   -3.0718   -0.4719 H   0  0  0  0  0  0  0  0  0  0  0  0
   -1.0733   -4.1142   -1.7307 H   0  0  0  0  0  0  0  0  0  0  0  0
   -1.1149   -3.5706   -0.0698 H   0  0  0  0  0  0  0  0  0  0  0  0
   -3.0575   -2.8271   -1.5838 H   0  0  0  0  0  0  0  0  0  0  0  0
   -2.3300   -1.6501   -0.5233 H   0  0  0  0  0  0  0  0  0  0  0  0
   -2.6060   -0.6443   -2.7286 H   0  0  0  0  0  0  0  0  0  0  0  0
   -1.8098   -2.0013   -3.5024 H   0  0  0  0  0  0  0  0  0  0  0  0
    0.1400   -0.9103   -3.3991 H   0  0  0  0  0  0  0  0  0  0  0  0
   -0.6279    0.4218   -2.5951 H   0  0  0  0  0  0  0  0  0  0  0  0
  1  2  1  0  0  0  0
  1 16  1  0  0  0  0
  1 17  1  0  0  0  0
  1 18  1  0  0  0  0
  2  3  1  0  0  0  0
  2 19  1  0  0  0  0
  2 20  1  0  0  0  0
  3  4  1  0  0  0  0
  3 10  1  0  0  0  0
  4  5  1  0  0  0  0
  4 21  1  0  0  0  0
  4 22  1  0  0  0  0
  5  6  1  0  0  0  0
  5  7  1  0  0  0  0
  5 23  1  6  0  0  0
  6 24  1  0  0  0  0
  7  8  1  0  0  0  0
  7 25  1  0  0  0  0
  7 26  1  0  0  0  0
  8  9  1  0  0  0  0
  9 27  1  0  0  0  0
  9 28  1  0  0  0  0
  9 29  1  0  0  0  0
 10 15  1  0  0  0  0
 10 11  1  0  0  0  0
 10 30  1  0  0  0  0
 11 12  1  0  0  0  0
 11 31  1  0  0  0  0
 11 32  1  0  0  0  0
 12 13  1  0  0  0  0
 12 33  1  0  0  0  0
 12 34  1  0  0  0  0
 13 14  1  0  0  0  0
 13 35  1  0  0  0  0
 13 36  1  0  0  0  0
 14 15  1  0  0  0  0
 14 37  1  0  0  0  0
 14 38  1  0  0  0  0
 15 39  1  0  0  0  0
 15 40  1  0  0  0  0
M  END
$$$$
