
 OpenBabel03202621312D

 25 25  0  0  1  0  0  0  0  0999 V2000
    4.3301    0.5000    0.0000 C   0  0  0  0  0  0  0  0  0  0  0  0
    3.4641    1.0000    0.0000 C   0  0  0  0  0  0  0  0  0  0  0  0
    2.5981    1.5000    0.0000 C   0  0  0  0  0  0  0  0  0  0  0  0
    1.2410    1.4693    0.0000 C   0  0  1  0  0  0  0  0  0  0  0  0
    0.0228    2.4116   -0.0000 C   0  0  0  0  0  0  0  0  0  0  0  0
    1.6723    0.0698    0.0000 O   0  0  0  0  0  0  0  0  0  0  0  0
    0.8750   -0.9449    0.0000 C   0  0  0  0  0  0  0  0  0  0  0  0
    1.1782   -2.2262   -0.0000 C   0  0  0  0  0  0  0  0  0  0  0  0
   -0.0043   -2.8746   -0.0000 C   0  0  0  0  0  0  0  0  0  0  0  0
   -1.2124   -2.2243    0.0000 N   0  0  0  0  0  0  0  0  0  0  0  0
   -1.2485   -0.9021   -0.0000 C   0  0  0  0  0  0  0  0  0  0  0  0
   -2.3972    0.3264    0.0000 S   0  0  0  0  0  0  0  0  0  0  0  0
   -3.6377   -0.7233   -0.0000 C   0  0  0  0  0  0  0  0  0  0  0  0
   -3.6026   -1.9289    0.0000 O   0  0  0  0  0  0  0  0  0  0  0  0
   -0.1546   -0.3047   -0.0000 N   0  0  0  0  0  0  0  0  0  0  0  0
    5.2527   -0.0342   -0.0000 H   0  0  0  0  0  0  0  0  0  0  0  0
    3.1493    2.4973    0.0000 H   0  0  0  0  0  0  0  0  0  0  0  0
    1.6990    1.8212   -0.0000 H   0  0  0  0  0  0  0  0  0  0  0  0
    1.6722    3.0008    0.0000 H   0  0  0  0  0  0  0  0  0  0  0  0
    0.2850    3.4676    0.0000 H   0  0  0  0  0  0  0  0  0  0  0  0
   -0.6329    1.6292   -0.0000 H   0  0  0  0  0  0  0  0  0  0  0  0
   -0.9854    2.7985    0.0000 H   0  0  0  0  0  0  0  0  0  0  0  0
    2.2111   -2.6176   -0.0000 H   0  0  0  0  0  0  0  0  0  0  0  0
   -0.0776   -3.9474   -0.0000 H   0  0  0  0  0  0  0  0  0  0  0  0
   -4.4742   -0.0575   -0.0000 H   0  0  0  0  0  0  0  0  0  0  0  0
  1  2  3  0  0  0  0
  1 16  1  0  0  0  0
  2  3  1  0  0  0  0
  3  4  1  0  0  0  0
  3 17  1  0  0  0  0
  3 18  1  0  0  0  0
  4  5  1  0  0  0  0
  4  6  1  0  0  0  0
  4 19  1  1  0  0  0
  5 20  1  0  0  0  0
  5 21  1  0  0  0  0
  5 22  1  0  0  0  0
  6  7  1  0  0  0  0
  7 15  2  0  0  0  0
  7  8  1  0  0  0  0
  8  9  2  0  0  0  0
  8 23  1  0  0  0  0
  9 10  1  0  0  0  0
  9 24  1  0  0  0  0
 10 11  2  0  0  0  0
 11 12  1  0  0  0  0
 11 15  1  0  0  0  0
 12 13  1  0  0  0  0
 13 14  2  0  0  0  0
 13 25  1  0  0  0  0
M  END
$$$$
