
 OpenBabel03202621392D

 32 34  0  0  1  0  0  0  0  0999 V2000
    3.3160    3.6253    1.4853 O   0  5  0  0  0  0  0  0  0  0  0  0
    4.1429    3.1368    0.6727 C   0  0  0  0  0  0  0  0  0  0  0  0
    5.2857    3.6917    0.2093 C   0  0  0  0  0  0  0  0  0  0  0  0
    6.2104    3.0329   -0.5587 O   0  0  0  0  0  0  0  0  0  0  0  0
    6.3993    1.7263   -0.0135 C   0  0  0  0  0  0  0  0  0  0  0  0
    5.1226    0.9048    0.1545 C   0  0  0  0  0  0  0  0  0  0  0  0
    3.8293    1.7408    0.0406 C   0  0  3  0  0  0  0  0  0  0  0  0
    2.6028    0.9466    0.4409 N   0  0  3  0  0  0  0  0  0  0  0  0
    2.5586   -0.3643   -0.2395 C   0  0  0  0  0  0  0  0  0  0  0  0
    1.3386   -1.2496    0.0617 C   0  0  0  0  0  0  0  0  0  0  0  0
    0.0441   -0.4952    0.2948 C   0  0  2  0  0  0  0  0  0  0  0  0
   -0.7315   -0.1756   -0.9341 N   0  0  0  0  0  0  0  0  0  0  0  0
   -1.0949    1.1279   -0.3207 C   0  0  0  0  0  0  0  0  0  0  0  0
    0.1483    1.0077    0.5793 C   0  0  1  0  0  0  0  0  0  0  0  0
    1.3917    1.6931    0.0296 C   0  0  0  0  0  0  0  0  0  0  0  0
    5.5868    4.7078    0.4319 H   0  0  0  0  0  0  0  0  0  0  0  0
    6.9186    1.8207    0.9506 H   0  0  0  0  0  0  0  0  0  0  0  0
    7.0939    1.1935   -0.6738 H   0  0  0  0  0  0  0  0  0  0  0  0
    5.1686    0.3795    1.1176 H   0  0  0  0  0  0  0  0  0  0  0  0
    5.1340    0.1295   -0.6211 H   0  0  0  0  0  0  0  0  0  0  0  0
    3.7015    1.9464   -1.0365 H   0  0  0  0  0  0  0  0  0  0  0  0
    3.4214   -0.9678    0.0656 H   0  0  0  0  0  0  0  0  0  0  0  0
    2.6375   -0.2289   -1.3259 H   0  0  0  0  0  0  0  0  0  0  0  0
    1.2189   -1.9867   -0.7430 H   0  0  0  0  0  0  0  0  0  0  0  0
    1.5607   -1.8305    0.9665 H   0  0  0  0  0  0  0  0  0  0  0  0
   -0.5797   -1.0251    1.0302 H   0  0  0  0  0  0  0  0  0  0  0  0
   -1.5248   -0.7901   -1.0992 H   0  0  0  0  0  0  0  0  0  0  0  0
   -2.0444    1.1057    0.2276 H   0  0  0  0  0  0  0  0  0  0  0  0
   -1.1135    1.9704   -1.0179 H   0  0  0  0  0  0  0  0  0  0  0  0
   -0.0244    1.2629    1.6321 H   0  0  0  0  0  0  0  0  0  0  0  0
    1.3544    1.7642   -1.0666 H   0  0  0  0  0  0  0  0  0  0  0  0
    1.3632    2.7203    0.3924 H   0  0  0  0  0  0  0  0  0  0  0  0
  1  2  1  0  0  0  0
  2  7  1  0  0  0  0
  2  3  2  0  0  0  0
  3  4  1  0  0  0  0
  3 16  1  0  0  0  0
  4  5  1  0  0  0  0
  5  6  1  0  0  0  0
  5 17  1  0  0  0  0
  5 18  1  0  0  0  0
  6  7  1  0  0  0  0
  6 19  1  0  0  0  0
  6 20  1  0  0  0  0
  7  8  1  0  0  0  0
  7 21  1  0  0  0  0
  8 15  1  0  0  0  0
  8  9  1  0  0  0  0
  9 10  1  0  0  0  0
  9 22  1  0  0  0  0
  9 23  1  0  0  0  0
 10 24  1  0  0  0  0
 10 25  1  0  0  0  0
 11 10  1  0  0  0  0
 11 12  1  0  0  0  0
 11 14  1  0  0  0  0
 11 26  1  1  0  0  0
 12 13  1  0  0  0  0
 12 27  1  0  0  0  0
 13 28  1  0  0  0  0
 13 29  1  0  0  0  0
 14 13  1  0  0  0  0
 14 15  1  0  0  0  0
 14 30  1  6  0  0  0
 15 31  1  0  0  0  0
 15 32  1  0  0  0  0
M  CHG  1   1  -1
M  END
$$$$
