
 OpenBabel03202621402D

 19 19  0  0  0  0  0  0  0  0999 V2000
    1.7601   -0.2788    0.0000 C   0  0  0  0  0  0  0  0  0  0  0  0
    0.8090   -0.5878    0.0000 C   0  0  0  0  0  0  0  0  0  0  0  0
    0.3649   -1.9047    0.1346 C   0  0  0  0  0  0  0  0  0  0  0  0
   -0.9897   -1.8737    0.0489 N   0  0  0  0  0  0  0  0  0  0  0  0
   -1.9353   -2.9719    0.0163 C   0  0  0  0  0  0  0  0  0  0  0  0
   -1.2929   -4.3543   -0.1543 C   0  0  0  0  0  0  0  0  0  0  0  0
   -2.2778   -5.4246   -0.3194 N   0  0  0  0  0  0  0  0  0  0  0  0
   -1.4204   -0.6092   -0.0284 N   0  0  0  0  0  0  0  0  0  0  0  0
   -0.3504    0.1764   -0.0569 N   0  0  0  0  0  0  0  0  0  0  0  0
    2.1216   -0.7833   -0.9315 H   0  0  0  0  0  0  0  0  0  0  0  0
    1.6400    0.7996   -0.2688 H   0  0  0  0  0  0  0  0  0  0  0  0
    2.7777    0.0518    0.0000 H   0  0  0  0  0  0  0  0  0  0  0  0
    0.9251   -2.8242    0.2335 H   0  0  0  0  0  0  0  0  0  0  0  0
   -2.6194   -2.7710   -0.8172 H   0  0  0  0  0  0  0  0  0  0  0  0
   -2.5057   -2.9265    0.9519 H   0  0  0  0  0  0  0  0  0  0  0  0
   -0.6366   -4.3580   -1.0309 H   0  0  0  0  0  0  0  0  0  0  0  0
   -0.6709   -4.5900    0.7159 H   0  0  0  0  0  0  0  0  0  0  0  0
   -2.8512   -5.5126    0.5159 H   0  0  0  0  0  0  0  0  0  0  0  0
   -1.7969   -6.3192   -0.4281 H   0  0  0  0  0  0  0  0  0  0  0  0
  1  2  1  0  0  0  0
  1 10  1  0  0  0  0
  1 11  1  0  0  0  0
  1 12  1  0  0  0  0
  2  9  1  0  0  0  0
  2  3  2  0  0  0  0
  3  4  1  0  0  0  0
  3 13  1  0  0  0  0
  4  5  1  0  0  0  0
  4  8  1  0  0  0  0
  5  6  1  0  0  0  0
  5 14  1  0  0  0  0
  5 15  1  0  0  0  0
  6  7  1  0  0  0  0
  6 16  1  0  0  0  0
  6 17  1  0  0  0  0
  7 18  1  0  0  0  0
  7 19  1  0  0  0  0
  8  9  2  0  0  0  0
M  END
$$$$
