
 OpenBabel03202621322D

 14 13  0  0  1  0  0  0  0  0999 V2000
    2.8773    2.1017   -0.6478 C   0  0  0  0  0  0  0  0  0  0  0  0
    1.8181    2.4931   -0.2338 C   0  0  0  0  0  0  0  0  0  0  0  0
    0.5266    2.9547    0.2988 C   0  0  1  0  0  0  0  0  0  0  0  0
    0.4244    4.3612    0.0671 O   0  0  0  0  0  0  0  0  0  0  0  0
   -0.6725    2.2089   -0.3203 C   0  0  0  0  0  0  0  0  0  0  0  0
   -1.5387    2.8162   -0.9500 O   0  0  0  0  0  0  0  0  0  0  0  0
   -0.8660    0.5000    0.0000 S   0  0  0  0  0  0  0  0  0  0  0  0
    0.0000    0.0000    0.0000 C   0  0  0  0  0  0  0  0  0  0  0  0
    3.8192    1.7564   -1.0066 H   0  0  0  0  0  0  0  0  0  0  0  0
    0.4853    2.8152    1.3840 H   0  0  0  0  0  0  0  0  0  0  0  0
   -0.3845    4.4929   -0.4693 H   0  0  0  0  0  0  0  0  0  0  0  0
   -0.3737   -0.9906   -0.3217 H   0  0  0  0  0  0  0  0  0  0  0  0
    0.1794   -0.0433    1.0926 H   0  0  0  0  0  0  0  0  0  0  0  0
    0.9266   -0.5350    0.0000 H   0  0  0  0  0  0  0  0  0  0  0  0
  1  2  3  0  0  0  0
  1  9  1  0  0  0  0
  2  3  1  0  0  0  0
  3  4  1  0  0  0  0
  3  5  1  0  0  0  0
  3 10  1  1  0  0  0
  4 11  1  0  0  0  0
  5  6  2  0  0  0  0
  5  7  1  0  0  0  0
  7  8  1  0  0  0  0
  8 12  1  0  0  0  0
  8 13  1  0  0  0  0
  8 14  1  0  0  0  0
M  END
$$$$
