
 OpenBabel03202621282D

 10 11  0  0  1  0  0  0  0  0999 V2000
   -2.2051   -2.7161    0.0000 O   0  0  0  0  0  0  0  0  0  0  0  0
   -2.3494   -1.7840    0.0000 C   0  0  0  0  0  0  0  0  0  0  0  0
   -1.6144   -1.1931    0.0000 N   0  0  0  0  0  0  0  0  0  0  0  0
   -0.7350   -1.5341    0.0000 C   0  0  0  0  0  0  0  0  0  0  0  0
    0.0000   -0.9432    0.0000 C   0  0  3  0  0  0  0  0  0  0  0  0
   -0.0000   -0.0000    0.0000 C   0  0  0  0  0  0  0  0  0  0  0  0
    0.8164    0.4715    0.0000 C   0  0  3  0  0  0  0  0  0  0  0  0
    1.2883   -0.3451    0.0000 C   0  0  0  0  0  0  0  0  0  0  0  0
    0.9432   -0.9432    0.0000 N   0  0  0  0  0  0  0  0  0  0  0  0
    0.8167   -0.4713    0.0000 C   0  0  0  0  0  0  0  0  0  0  0  0
  1  2  2  0  0  0  0
  2  3  1  0  0  0  0
  3  4  1  0  0  0  0
  4  5  1  0  0  0  0
  5  9  1  0  0  0  0
  5 10  1  0  0  0  0
  5  6  1  0  0  0  0
  6  7  1  0  0  0  0
  7  8  1  0  0  0  0
  7 10  1  0  0  0  0
  8  9  1  0  0  0  0
M  END
$$$$
