
 OpenBabel03202621342D

 28 30  0  0  1  0  0  0  0  0999 V2000
    1.4945   -0.9706    0.0000 C   0  0  0  0  0  0  0  0  0  0  0  0
    0.5000   -0.8660    0.0000 C   0  0  0  0  0  0  0  0  0  0  0  0
   -0.4348   -1.8795    0.1745 C   0  0  0  0  0  0  0  0  0  0  0  0
   -1.6404   -1.3642   -0.2179 N   0  0  0  0  0  0  0  0  0  0  0  0
   -2.8055   -2.1223   -0.6861 C   0  0  2  0  0  0  0  0  0  0  0  0
   -2.9191   -3.4861    0.0581 C   0  0  0  0  0  0  0  0  0  0  0  0
   -4.2053   -4.2583   -0.2441 C   0  0  0  0  0  0  0  0  0  0  0  0
   -5.3660   -3.3591   -0.0657 C   0  0  0  0  0  0  0  0  0  0  0  0
   -6.6064   -3.8291    0.2959 N   0  0  0  0  0  0  0  0  0  0  0  0
   -7.4507   -2.8257    0.3631 C   0  0  0  0  0  0  0  0  0  0  0  0
   -8.7454   -2.9693    0.6776 N   0  0  0  0  0  0  0  0  0  0  0  0
   -6.8001   -1.2794   -0.0172 S   0  0  0  0  0  0  0  0  0  0  0  0
   -5.2870   -2.0034   -0.2775 C   0  0  0  0  0  0  0  0  0  0  0  0
   -4.1065   -1.2876   -0.6934 C   0  0  0  0  0  0  0  0  0  0  0  0
   -4.1712   -0.1425   -1.1414 O   0  0  0  0  0  0  0  0  0  0  0  0
   -1.5155   -0.0494   -0.4252 N   0  0  0  0  0  0  0  0  0  0  0  0
   -0.2358    0.2653   -0.3049 N   0  0  0  0  0  0  0  0  0  0  0  0
    1.6436   -1.2507   -1.0714 H   0  0  0  0  0  0  0  0  0  0  0  0
    1.8243    0.0867    0.1427 H   0  0  0  0  0  0  0  0  0  0  0  0
    2.5586   -1.0825    0.0000 H   0  0  0  0  0  0  0  0  0  0  0  0
   -0.2902   -2.9284    0.3917 H   0  0  0  0  0  0  0  0  0  0  0  0
   -2.5898   -2.3397   -1.7425 H   0  0  0  0  0  0  0  0  0  0  0  0
   -2.0725   -4.1315   -0.2084 H   0  0  0  0  0  0  0  0  0  0  0  0
   -2.8539   -3.3150    1.1416 H   0  0  0  0  0  0  0  0  0  0  0  0
   -4.2806   -5.1264    0.4196 H   0  0  0  0  0  0  0  0  0  0  0  0
   -4.1860   -4.6304   -1.2751 H   0  0  0  0  0  0  0  0  0  0  0  0
   -9.3839   -2.2455    0.3683 H   0  0  0  0  0  0  0  0  0  0  0  0
   -9.1127   -3.9103    0.5996 H   0  0  0  0  0  0  0  0  0  0  0  0
  1  2  1  0  0  0  0
  1 18  1  0  0  0  0
  1 19  1  0  0  0  0
  1 20  1  0  0  0  0
  2 17  1  0  0  0  0
  2  3  2  0  0  0  0
  3  4  1  0  0  0  0
  3 21  1  0  0  0  0
  4 16  1  0  0  0  0
  5  4  1  0  0  0  0
  5  6  1  0  0  0  0
  5 14  1  0  0  0  0
  5 22  1  1  0  0  0
  6  7  1  0  0  0  0
  6 23  1  0  0  0  0
  6 24  1  0  0  0  0
  7  8  1  0  0  0  0
  7 25  1  0  0  0  0
  7 26  1  0  0  0  0
  8 13  2  0  0  0  0
  8  9  1  0  0  0  0
  9 10  2  0  0  0  0
 10 11  1  0  0  0  0
 10 12  1  0  0  0  0
 11 27  1  0  0  0  0
 11 28  1  0  0  0  0
 12 13  1  0  0  0  0
 13 14  1  0  0  0  0
 14 15  2  0  0  0  0
 16 17  2  0  0  0  0
M  END
$$$$
