
 OpenBabel03202621312D

 31 31  0  0  1  0  0  0  0  0999 V2000
    0.8660    1.5000    0.0000 C   0  0  0  0  0  0  0  0  0  0  0  0
    0.8660    0.5000    0.0000 N   0  0  0  0  0  0  0  0  0  0  0  0
    2.2854    0.1479    0.3366 C   0  0  0  0  0  0  0  0  0  0  0  0
    2.4925   -1.3224    0.4599 C   0  0  0  0  0  0  0  0  0  0  0  0
    1.1570   -1.6866    1.0864 C   0  0  0  0  0  0  0  0  0  0  0  0
    0.0000   -1.0000    0.0000 C   0  0  2  0  0  0  0  0  0  0  0  0
   -1.5723   -1.5449    0.4172 N   0  0  0  0  0  0  0  0  0  0  0  0
   -1.7192   -3.0043    0.0562 C   0  0  0  0  0  0  0  0  0  0  0  0
   -3.0607   -3.7318    0.1129 C   0  0  0  0  0  0  0  0  0  0  0  0
   -4.5455   -2.7120    0.0337 S   0  0  0  0  0  0  0  0  0  0  0  0
   -5.7085   -4.0313    0.1654 C   0  0  0  0  0  0  0  0  0  0  0  0
   -6.9162   -3.8190    0.1680 O   0  0  0  0  0  0  0  0  0  0  0  0
    0.0000    0.0000    0.0000 C   0  0  0  0  0  0  0  0  0  0  0  0
    1.1888    1.7173   -1.0568 H   0  0  0  0  0  0  0  0  0  0  0  0
   -0.1929    1.9213    0.1099 H   0  0  0  0  0  0  0  0  0  0  0  0
    0.8660    2.5700    0.0000 H   0  0  0  0  0  0  0  0  0  0  0  0
    2.5711    0.6047    1.3014 H   0  0  0  0  0  0  0  0  0  0  0  0
    2.9941    0.5353   -0.4126 H   0  0  0  0  0  0  0  0  0  0  0  0
    2.6026   -1.7824   -0.5260 H   0  0  0  0  0  0  0  0  0  0  0  0
    3.3409   -1.5838    1.0843 H   0  0  0  0  0  0  0  0  0  0  0  0
    1.1384   -2.7929    1.1226 H   0  0  0  0  0  0  0  0  0  0  0  0
    1.0088   -1.3238    2.1084 H   0  0  0  0  0  0  0  0  0  0  0  0
    0.0000   -2.0700    0.0000 H   0  0  0  0  0  0  0  0  0  0  0  0
   -2.2199   -1.0197   -0.1763 H   0  0  0  0  0  0  0  0  0  0  0  0
   -1.3397   -3.1441   -0.9673 H   0  0  0  0  0  0  0  0  0  0  0  0
   -1.0554   -3.5823    0.7172 H   0  0  0  0  0  0  0  0  0  0  0  0
   -3.0966   -4.3497    1.0184 H   0  0  0  0  0  0  0  0  0  0  0  0
   -3.0954   -4.4248   -0.7378 H   0  0  0  0  0  0  0  0  0  0  0  0
   -5.3153   -5.0568    0.2356 H   0  0  0  0  0  0  0  0  0  0  0  0
   -0.6451    0.3037    0.8727 H   0  0  0  0  0  0  0  0  0  0  0  0
   -0.6813    0.2650   -0.8513 H   0  0  0  0  0  0  0  0  0  0  0  0
  1  2  1  0  0  0  0
  1 14  1  0  0  0  0
  1 15  1  0  0  0  0
  1 16  1  0  0  0  0
  2 13  1  0  0  0  0
  2  3  1  0  0  0  0
  3  4  1  0  0  0  0
  3 17  1  0  0  0  0
  3 18  1  0  0  0  0
  4  5  1  0  0  0  0
  4 19  1  0  0  0  0
  4 20  1  0  0  0  0
  5  6  1  0  0  0  0
  5 21  1  0  0  0  0
  5 22  1  0  0  0  0
  6  7  1  0  0  0  0
  6 13  1  0  0  0  0
  6 23  1  1  0  0  0
  7  8  1  0  0  0  0
  7 24  1  0  0  0  0
  8  9  1  0  0  0  0
  8 25  1  0  0  0  0
  8 26  1  0  0  0  0
  9 10  1  0  0  0  0
  9 27  1  0  0  0  0
  9 28  1  0  0  0  0
 10 11  1  0  0  0  0
 11 12  2  0  0  0  0
 11 29  1  0  0  0  0
 13 30  1  0  0  0  0
 13 31  1  0  0  0  0
M  END
$$$$
