
 OpenBabel03202621352D

 20 19  0  0  1  0  0  0  0  0999 V2000
    3.4641    0.0000    0.0000 C   0  0  0  0  0  0  0  0  0  0  0  0
    3.4641    1.0000    0.0000 S   0  0  0  0  0  0  0  0  0  0  0  0
    1.9052    1.6597    0.4406 C   0  0  0  0  0  0  0  0  0  0  0  0
    1.8442    2.6039    1.2229 O   0  0  0  0  0  0  0  0  0  0  0  0
    0.6366    1.0688   -0.2351 C   0  0  1  0  0  0  0  0  0  0  0  0
   -0.5106    1.9874    0.0324 N   0  0  0  0  0  0  0  0  0  0  0  0
    0.3206   -0.3470    0.2779 C   0  0  0  0  0  0  0  0  0  0  0  0
   -1.0464   -0.8814   -0.1442 C   0  0  0  0  0  0  0  0  0  0  0  0
   -2.0811   -0.2272    0.5734 O   0  0  0  0  0  0  0  0  0  0  0  0
    3.6771   -0.1818    1.0729 H   0  0  0  0  0  0  0  0  0  0  0  0
    4.4007   -0.1714   -0.5637 H   0  0  0  0  0  0  0  0  0  0  0  0
    3.4641   -1.0700    0.0000 H   0  0  0  0  0  0  0  0  0  0  0  0
    0.7894    1.0502   -1.3211 H   0  0  0  0  0  0  0  0  0  0  0  0
   -0.4348    2.2751    1.0191 H   0  0  0  0  0  0  0  0  0  0  0  0
   -0.3315    2.8662   -0.4639 H   0  0  0  0  0  0  0  0  0  0  0  0
    1.0686   -1.0438   -0.1140 H   0  0  0  0  0  0  0  0  0  0  0  0
    0.3995   -0.3667    1.3722 H   0  0  0  0  0  0  0  0  0  0  0  0
   -1.1140   -1.9502    0.0811 H   0  0  0  0  0  0  0  0  0  0  0  0
   -1.2188   -0.7494   -1.2170 H   0  0  0  0  0  0  0  0  0  0  0  0
   -1.9368    0.7321    0.4160 H   0  0  0  0  0  0  0  0  0  0  0  0
  1  2  1  0  0  0  0
  1 10  1  0  0  0  0
  1 11  1  0  0  0  0
  1 12  1  0  0  0  0
  2  3  1  0  0  0  0
  3  4  2  0  0  0  0
  3  5  1  0  0  0  0
  5  6  1  0  0  0  0
  5  7  1  0  0  0  0
  5 13  1  1  0  0  0
  6 14  1  0  0  0  0
  6 15  1  0  0  0  0
  7  8  1  0  0  0  0
  7 16  1  0  0  0  0
  7 17  1  0  0  0  0
  8  9  1  0  0  0  0
  8 18  1  0  0  0  0
  8 19  1  0  0  0  0
  9 20  1  0  0  0  0
M  END
$$$$
