
 OpenBabel03202621282D

 31 32  0  0  1  0  0  0  0  0999 V2000
    0.8398   -2.4242    0.0000 C   0  0  0  0  0  0  0  0  0  0  0  0
    0.8398   -1.4545    0.0000 N   0  0  0  0  0  0  0  0  0  0  0  0
    0.0000   -0.9697    0.0000 C   0  0  0  0  0  0  0  0  0  0  0  0
   -0.8398   -1.4545    0.0000 C   0  0  0  0  0  0  0  0  0  0  0  0
   -1.6796   -0.9697    0.0000 C   0  0  0  0  0  0  0  0  0  0  0  0
   -2.5193   -1.4545    0.0000 C   0  0  3  0  0  0  0  0  0  0  0  0
   -3.0042   -0.6148    0.0000 O   0  0  0  0  0  0  0  0  0  0  0  0
   -4.1989   -2.4242    0.0000 C   0  0  2  0  0  0  0  0  0  0  0  0
   -4.1989   -3.3939    0.0000 C   0  0  0  0  0  0  0  0  0  0  0  0
   -5.0387   -3.8788    0.0000 C   0  0  0  0  0  0  0  0  0  0  0  0
   -5.0387   -4.8485    0.0000 O   0  0  0  0  0  0  0  0  0  0  0  0
   -5.0387   -1.9394    0.0000 C   0  0  0  0  0  0  0  0  0  0  0  0
   -5.8785   -2.4242    0.0000 O   0  0  0  0  0  0  0  0  0  0  0  0
   -5.0387   -0.9697    0.0000 C   0  0  0  0  0  0  0  0  0  0  0  0
   -4.1989   -0.4848    0.0000 C   0  0  0  0  0  0  0  0  0  0  0  0
   -4.1989    0.4848    0.0000 C   0  0  0  0  0  0  0  0  0  0  0  0
   -5.0387    0.9697    0.0000 C   0  0  0  0  0  0  0  0  0  0  0  0
   -5.8785    0.4848    0.0000 C   0  0  0  0  0  0  0  0  0  0  0  0
   -5.8785   -0.4848    0.0000 C   0  0  0  0  0  0  0  0  0  0  0  0
   -6.7183   -0.9697    0.0000 O   0  5  0  0  0  0  0  0  0  0  0  0
   -2.0345   -2.2943    0.0000 C   0  0  1  0  0  0  0  0  0  0  0  0
   -1.0648   -2.2943    0.0000 O   0  0  0  0  0  0  0  0  0  0  0  0
   -2.5193   -3.1341    0.0000 C   0  0  0  0  0  0  0  0  0  0  0  0
   -3.4890   -3.1341    0.0000 O   0  0  0  0  0  0  0  0  0  0  0  0
   -2.0345   -3.9739    0.0000 C   0  0  0  0  0  0  0  0  0  0  0  0
   -1.0648   -3.9739    0.0000 C   0  0  0  0  0  0  0  0  0  0  0  0
   -0.5800   -4.8137    0.0000 C   0  0  0  0  0  0  0  0  0  0  0  0
   -0.5800   -3.1341    0.0000 O   0  0  0  0  0  0  0  0  0  0  0  0
   -1.6796   -0.0000    0.0000 N   0  0  0  0  0  0  0  0  0  0  0  0
   -0.8398    0.4848    0.0000 C   0  0  0  0  0  0  0  0  0  0  0  0
    0.0000    0.0000    0.0000 N   0  0  0  0  0  0  0  0  0  0  0  0
  1  2  1  0  0  0  0
  2  3  1  0  0  0  0
  3 31  2  0  0  0  0
  3  4  1  0  0  0  0
  4  5  2  0  0  0  0
  5  6  1  0  0  0  0
  5 29  1  0  0  0  0
  6  7  1  0  0  0  0
  6  8  1  0  0  0  0
  6 21  1  0  0  0  0
  8  9  1  6  0  0  0
  8 12  1  0  0  0  0
  9 10  1  0  0  0  0
 10 11  1  0  0  0  0
 12 13  2  0  0  0  0
 12 14  1  0  0  0  0
 14 19  2  0  0  0  0
 14 15  1  0  0  0  0
 15 16  2  0  0  0  0
 16 17  1  0  0  0  0
 17 18  2  0  0  0  0
 18 19  1  0  0  0  0
 19 20  1  0  0  0  0
 21 22  1  1  0  0  0
 21 23  1  0  0  0  0
 23 24  2  0  0  0  0
 23 25  1  0  0  0  0
 25 26  1  0  0  0  0
 26 27  1  0  0  0  0
 26 28  2  0  0  0  0
 29 30  2  0  0  0  0
 30 31  1  0  0  0  0
M  CHG  1  20  -1
M  END
$$$$
