
 OpenBabel03202621312D

 18 19  0  0  1  0  0  0  0  0999 V2000
    2.6523   -2.9270    0.0036 O   0  0  0  0  0  0  0  0  0  0  0  0
    2.9543   -1.7438    0.0731 C   0  0  0  0  0  0  0  0  0  0  0  0
    2.1091   -0.6764   -0.1072 N   0  0  0  0  0  0  0  0  0  0  0  0
    0.7172   -0.8392   -0.3969 C   0  0  2  0  0  0  0  0  0  0  0  0
   -0.2933   -0.7016    0.7152 C   0  0  1  0  0  0  0  0  0  0  0  0
   -1.6243   -1.3697    0.6036 C   0  0  0  0  0  0  0  0  0  0  0  0
   -2.4299   -0.4191   -0.2801 C   0  0  0  0  0  0  0  0  0  0  0  0
   -1.4666    0.2535   -1.1148 O   0  0  0  0  0  0  0  0  0  0  0  0
   -0.2269    0.3317   -0.3657 C   0  0  1  0  0  0  0  0  0  0  0  0
    3.9818   -1.4120    0.2992 H   0  0  0  0  0  0  0  0  0  0  0  0
    2.4897    0.2586   -0.0340 H   0  0  0  0  0  0  0  0  0  0  0  0
    0.5301   -1.5896   -1.1624 H   0  0  0  0  0  0  0  0  0  0  0  0
    0.0109   -0.4369    1.7151 H   0  0  0  0  0  0  0  0  0  0  0  0
   -1.5165   -2.3455    0.1184 H   0  0  0  0  0  0  0  0  0  0  0  0
   -2.1088   -1.5239    1.5733 H   0  0  0  0  0  0  0  0  0  0  0  0
   -3.1665   -0.9407   -0.8968 H   0  0  0  0  0  0  0  0  0  0  0  0
   -2.9381    0.3422    0.3217 H   0  0  0  0  0  0  0  0  0  0  0  0
    0.1588    1.3134   -0.1225 H   0  0  0  0  0  0  0  0  0  0  0  0
  1  2  2  0  0  0  0
  2  3  1  0  0  0  0
  2 10  1  0  0  0  0
  3 11  1  0  0  0  0
  4  3  1  0  0  0  0
  4  5  1  0  0  0  0
  4  9  1  0  0  0  0
  4 12  1  1  0  0  0
  5  6  1  0  0  0  0
  5  9  1  0  0  0  0
  5 13  1  6  0  0  0
  6  7  1  0  0  0  0
  6 14  1  0  0  0  0
  6 15  1  0  0  0  0
  7  8  1  0  0  0  0
  7 16  1  0  0  0  0
  7 17  1  0  0  0  0
  9  8  1  0  0  0  0
  9 18  1  6  0  0  0
M  END
$$$$
