
 OpenBabel03202621302D

 18 18  0  0  0  0  0  0  0  0999 V2000
    0.2788   -1.7601    0.0000 C   0  0  0  0  0  0  0  0  0  0  0  0
   -0.3090   -0.9511    0.0000 C   0  0  0  0  0  0  0  0  0  0  0  0
   -1.6760   -1.1039    0.0000 O   0  0  0  0  0  0  0  0  0  0  0  0
   -2.2589    0.1052    0.0000 C   0  0  0  0  0  0  0  0  0  0  0  0
   -1.3038    1.0855    0.0000 C   0  0  0  0  0  0  0  0  0  0  0  0
   -0.0191    0.4579   -0.0000 C   0  0  0  0  0  0  0  0  0  0  0  0
    1.3661    1.0677   -0.0000 C   0  0  0  0  0  0  0  0  0  0  0  0
    1.7045    2.4473    0.0000 O   0  0  0  0  0  0  0  0  0  0  0  0
    0.9988    3.5681    0.0000 C   0  0  0  0  0  0  0  0  0  0  0  0
   -0.2054    3.7348   -0.0000 O   0  0  0  0  0  0  0  0  0  0  0  0
   -0.3597   -2.6607   -0.0000 H   0  0  0  0  0  0  0  0  0  0  0  0
    1.3331   -1.5088   -0.0000 H   0  0  0  0  0  0  0  0  0  0  0  0
    0.9077   -2.6257    0.0000 H   0  0  0  0  0  0  0  0  0  0  0  0
   -3.3392    0.1091    0.0000 H   0  0  0  0  0  0  0  0  0  0  0  0
   -1.5658    2.1275   -0.0000 H   0  0  0  0  0  0  0  0  0  0  0  0
    1.8550    0.0888    0.0000 H   0  0  0  0  0  0  0  0  0  0  0  0
    2.4638    0.9370   -0.0000 H   0  0  0  0  0  0  0  0  0  0  0  0
    1.7078    4.4113    0.0000 H   0  0  0  0  0  0  0  0  0  0  0  0
  1  2  1  0  0  0  0
  1 11  1  0  0  0  0
  1 12  1  0  0  0  0
  1 13  1  0  0  0  0
  2  6  2  0  0  0  0
  2  3  1  0  0  0  0
  3  4  1  0  0  0  0
  4  5  2  0  0  0  0
  4 14  1  0  0  0  0
  5  6  1  0  0  0  0
  5 15  1  0  0  0  0
  6  7  1  0  0  0  0
  7  8  1  0  0  0  0
  7 16  1  0  0  0  0
  7 17  1  0  0  0  0
  8  9  1  0  0  0  0
  9 10  2  0  0  0  0
  9 18  1  0  0  0  0
M  END
$$$$
