
 OpenBabel03202621372D

 42 42  0  0  0  0  0  0  0  0999 V2000
    1.5878    0.8090    0.0000 C   0  0  0  0  0  0  0  0  0  0  0  0
    1.0000    0.0000    0.0000 C   0  0  0  0  0  0  0  0  0  0  0  0
    0.9360   -1.1328   -0.7840 C   0  0  0  0  0  0  0  0  0  0  0  0
   -0.1079   -1.8535   -0.2621 N   0  0  0  0  0  0  0  0  0  0  0  0
   -0.1564   -3.2804   -0.0932 C   0  0  0  0  0  0  0  0  0  0  0  0
    1.2001   -3.7555    0.3780 C   0  0  0  0  0  0  0  0  0  0  0  0
    1.7732   -4.4171   -0.7363 O   0  0  0  0  0  0  0  0  0  0  0  0
    2.6328   -5.4666   -0.3538 C   0  0  0  0  0  0  0  0  0  0  0  0
    1.8554   -6.6178    0.2812 C   0  0  0  0  0  0  0  0  0  0  0  0
    2.7037   -7.7453    0.4246 O   0  0  0  0  0  0  0  0  0  0  0  0
    2.7338   -8.3770   -0.8257 N   0  0  0  0  0  0  0  0  0  0  0  0
    3.7552   -8.2180   -1.7365 C   0  0  0  0  0  0  0  0  0  0  0  0
    3.6619   -8.7083   -2.8532 O   0  0  0  0  0  0  0  0  0  0  0  0
    4.8867   -7.4923   -1.3798 O   0  0  0  0  0  0  0  0  0  0  0  0
    5.6962   -7.5388    0.0000 C   0  0  0  0  0  0  0  0  0  0  0  0
    6.6962   -7.5388    0.0000 C   0  0  0  0  0  0  0  0  0  0  0  0
    6.1962   -6.6728    0.0000 C   0  0  0  0  0  0  0  0  0  0  0  0
    5.6962   -8.5388    0.0000 C   0  0  0  0  0  0  0  0  0  0  0  0
   -0.8352   -1.1280    0.5816 N   0  0  0  0  0  0  0  0  0  0  0  0
   -0.1303   -0.0502    0.8326 N   0  0  0  0  0  0  0  0  0  0  0  0
    2.2453    0.5439    0.8609 H   0  0  0  0  0  0  0  0  0  0  0  0
    0.8801    1.6271    0.2799 H   0  0  0  0  0  0  0  0  0  0  0  0
    2.2167    1.6746    0.0000 H   0  0  0  0  0  0  0  0  0  0  0  0
    1.5907   -1.5326   -1.5477 H   0  0  0  0  0  0  0  0  0  0  0  0
   -0.9028   -3.4982    0.6797 H   0  0  0  0  0  0  0  0  0  0  0  0
   -0.4870   -3.7247   -1.0369 H   0  0  0  0  0  0  0  0  0  0  0  0
    1.0711   -4.4027    1.2462 H   0  0  0  0  0  0  0  0  0  0  0  0
    1.8947   -2.9654    0.6909 H   0  0  0  0  0  0  0  0  0  0  0  0
    3.4295   -5.1057    0.3048 H   0  0  0  0  0  0  0  0  0  0  0  0
    3.1133   -5.7846   -1.2785 H   0  0  0  0  0  0  0  0  0  0  0  0
    1.4969   -6.3641    1.2811 H   0  0  0  0  0  0  0  0  0  0  0  0
    0.9586   -6.8652   -0.3056 H   0  0  0  0  0  0  0  0  0  0  0  0
    2.0603   -9.1202   -0.9790 H   0  0  0  0  0  0  0  0  0  0  0  0
    7.1531   -8.0367   -1.0466 H   0  0  0  0  0  0  0  0  0  0  0  0
    7.1859   -7.8529    1.1056 H   0  0  0  0  0  0  0  0  0  0  0  0
    7.7662   -7.5388    0.0000 H   0  0  0  0  0  0  0  0  0  0  0  0
    5.7421   -5.9690   -0.8280 H   0  0  0  0  0  0  0  0  0  0  0  0
    5.6441   -6.1571    0.9077 H   0  0  0  0  0  0  0  0  0  0  0  0
    6.7312   -5.7462    0.0000 H   0  0  0  0  0  0  0  0  0  0  0  0
    4.6266   -8.7657    0.2077 H   0  0  0  0  0  0  0  0  0  0  0  0
    5.8317   -8.8511    1.1329 H   0  0  0  0  0  0  0  0  0  0  0  0
    5.6962   -9.6088    0.0000 H   0  0  0  0  0  0  0  0  0  0  0  0
  1  2  1  0  0  0  0
  1 21  1  0  0  0  0
  1 22  1  0  0  0  0
  1 23  1  0  0  0  0
  2 20  1  0  0  0  0
  2  3  2  0  0  0  0
  3  4  1  0  0  0  0
  3 24  1  0  0  0  0
  4  5  1  0  0  0  0
  4 19  1  0  0  0  0
  5  6  1  0  0  0  0
  5 25  1  0  0  0  0
  5 26  1  0  0  0  0
  6  7  1  0  0  0  0
  6 27  1  0  0  0  0
  6 28  1  0  0  0  0
  7  8  1  0  0  0  0
  8  9  1  0  0  0  0
  8 29  1  0  0  0  0
  8 30  1  0  0  0  0
  9 10  1  0  0  0  0
  9 31  1  0  0  0  0
  9 32  1  0  0  0  0
 10 11  1  0  0  0  0
 11 12  1  0  0  0  0
 11 33  1  0  0  0  0
 12 13  2  0  0  0  0
 12 14  1  0  0  0  0
 14 15  1  0  0  0  0
 15 16  1  0  0  0  0
 15 17  1  0  0  0  0
 15 18  1  0  0  0  0
 16 34  1  0  0  0  0
 16 35  1  0  0  0  0
 16 36  1  0  0  0  0
 17 37  1  0  0  0  0
 17 38  1  0  0  0  0
 17 39  1  0  0  0  0
 18 40  1  0  0  0  0
 18 41  1  0  0  0  0
 18 42  1  0  0  0  0
 19 20  2  0  0  0  0
M  END
$$$$
