
 OpenBabel03202621322D

 23 23  0  0  1  0  0  0  0  0999 V2000
   -0.8660   -1.5000    0.0000 C   0  0  0  0  0  0  0  0  0  0  0  0
   -0.8660   -0.5000    0.0000 C   0  0  2  0  0  0  0  0  0  0  0  0
   -2.2902    0.1498   -0.0353 C   0  0  0  0  0  0  0  0  0  0  0  0
   -2.3289    1.5402   -0.6931 C   0  0  1  0  0  0  0  0  0  0  0  0
   -3.4825    2.2722   -0.2339 O   0  0  0  0  0  0  0  0  0  0  0  0
   -4.6671    1.9643   -0.8027 C   0  0  0  0  0  0  0  0  0  0  0  0
   -5.7257    2.5007   -0.5054 O   0  0  0  0  0  0  0  0  0  0  0  0
   -1.0925    2.3614   -0.3438 C   0  0  0  0  0  0  0  0  0  0  0  0
    0.1989    1.6137   -0.6523 C   0  0  0  0  0  0  0  0  0  0  0  0
   -0.0259    0.2117   -1.0191 N   0  0  0  0  0  0  0  0  0  0  0  0
   -1.1396   -1.7201   -1.0634 H   0  0  0  0  0  0  0  0  0  0  0  0
    0.2171   -1.7223    0.1818 H   0  0  0  0  0  0  0  0  0  0  0  0
   -0.8660   -2.5700    0.0000 H   0  0  0  0  0  0  0  0  0  0  0  0
   -0.4843   -0.1094    0.9620 H   0  0  0  0  0  0  0  0  0  0  0  0
   -3.0147   -0.4889   -0.5610 H   0  0  0  0  0  0  0  0  0  0  0  0
   -2.6717    0.2274    0.9942 H   0  0  0  0  0  0  0  0  0  0  0  0
   -2.3804    1.4353   -1.7853 H   0  0  0  0  0  0  0  0  0  0  0  0
   -4.5874    1.1734   -1.5633 H   0  0  0  0  0  0  0  0  0  0  0  0
   -1.1213    2.6391    0.7176 H   0  0  0  0  0  0  0  0  0  0  0  0
   -1.1171    3.3101   -0.8958 H   0  0  0  0  0  0  0  0  0  0  0  0
    0.7236    2.1081   -1.4778 H   0  0  0  0  0  0  0  0  0  0  0  0
    0.8710    1.6713    0.2135 H   0  0  0  0  0  0  0  0  0  0  0  0
    0.8850   -0.2439   -1.1123 H   0  0  0  0  0  0  0  0  0  0  0  0
  1 11  1  0  0  0  0
  1 12  1  0  0  0  0
  1 13  1  0  0  0  0
  2  1  1  0  0  0  0
  2  3  1  0  0  0  0
  2 10  1  0  0  0  0
  2 14  1  1  0  0  0
  3  4  1  0  0  0  0
  3 15  1  0  0  0  0
  3 16  1  0  0  0  0
  4  5  1  0  0  0  0
  4  8  1  0  0  0  0
  4 17  1  6  0  0  0
  5  6  1  0  0  0  0
  6  7  2  0  0  0  0
  6 18  1  0  0  0  0
  8  9  1  0  0  0  0
  8 19  1  0  0  0  0
  8 20  1  0  0  0  0
  9 10  1  0  0  0  0
  9 21  1  0  0  0  0
  9 22  1  0  0  0  0
 10 23  1  0  0  0  0
M  END
$$$$
