
 OpenBabel03202621332D

 25 26  0  0  0  0  0  0  0  0999 V2000
    1.4945   -0.9706    0.0000 C   0  0  0  0  0  0  0  0  0  0  0  0
    0.5000   -0.8660    0.0000 C   0  0  0  0  0  0  0  0  0  0  0  0
   -0.4114   -1.8571   -0.0000 C   0  0  0  0  0  0  0  0  0  0  0  0
   -1.5797   -1.2057   -0.0000 N   0  0  0  0  0  0  0  0  0  0  0  0
   -2.7993   -1.8057    0.0000 C   0  0  0  0  0  0  0  0  0  0  0  0
   -2.7203   -3.2383    0.0000 C   0  0  0  0  0  0  0  0  0  0  0  0
   -3.8402   -4.0115    0.0000 C   0  0  0  0  0  0  0  0  0  0  0  0
   -5.0434   -3.3330    0.0000 C   0  0  0  0  0  0  0  0  0  0  0  0
   -6.2562   -4.1277   -0.0000 N   0  3  0  0  0  0  0  0  0  0  0  0
   -7.3281   -3.5164   -0.0000 O   0  0  0  0  0  0  0  0  0  0  0  0
   -6.1324   -5.3599   -0.0000 O   0  5  0  0  0  0  0  0  0  0  0  0
   -5.1313   -1.9247    0.0000 C   0  0  0  0  0  0  0  0  0  0  0  0
   -4.0022   -1.1012    0.0000 C   0  0  0  0  0  0  0  0  0  0  0  0
   -4.2497    0.3909    0.0000 N   0  3  0  0  0  0  0  0  0  0  0  0
   -3.3779    1.2396    0.0000 O   0  0  0  0  0  0  0  0  0  0  0  0
   -5.4392    0.7013   -0.0000 O   0  5  0  0  0  0  0  0  0  0  0  0
   -1.3823    0.0989   -0.0000 N   0  0  0  0  0  0  0  0  0  0  0  0
   -0.1077    0.3362   -0.0000 N   0  0  0  0  0  0  0  0  0  0  0  0
    1.7631   -2.0418    0.0000 H   0  0  0  0  0  0  0  0  0  0  0  0
    1.9549    0.0323    0.0000 H   0  0  0  0  0  0  0  0  0  0  0  0
    2.5586   -1.0825    0.0000 H   0  0  0  0  0  0  0  0  0  0  0  0
   -0.2085   -2.9223    0.0000 H   0  0  0  0  0  0  0  0  0  0  0  0
   -1.7985   -3.8258    0.0000 H   0  0  0  0  0  0  0  0  0  0  0  0
   -3.7367   -5.0960   -0.0000 H   0  0  0  0  0  0  0  0  0  0  0  0
   -6.1128   -1.4531    0.0000 H   0  0  0  0  0  0  0  0  0  0  0  0
  1  2  1  0  0  0  0
  1 19  1  0  0  0  0
  1 20  1  0  0  0  0
  1 21  1  0  0  0  0
  2 18  1  0  0  0  0
  2  3  2  0  0  0  0
  3  4  1  0  0  0  0
  3 22  1  0  0  0  0
  4  5  1  0  0  0  0
  4 17  1  0  0  0  0
  5 13  2  0  0  0  0
  5  6  1  0  0  0  0
  6  7  2  0  0  0  0
  6 23  1  0  0  0  0
  7  8  1  0  0  0  0
  7 24  1  0  0  0  0
  8  9  1  0  0  0  0
  8 12  2  0  0  0  0
  9 10  2  0  0  0  0
  9 11  1  0  0  0  0
 12 13  1  0  0  0  0
 12 25  1  0  0  0  0
 13 14  1  0  0  0  0
 14 15  2  0  0  0  0
 14 16  1  0  0  0  0
 17 18  2  0  0  0  0
M  CHG  4   9   1  11  -1  14   1  16  -1
M  END
$$$$
