
 OpenBabel03202621362D

 29 30  0  0  1  0  0  0  0  0999 V2000
    4.5519    0.8876    0.7009 O   0  0  0  0  0  0  0  0  0  0  0  0
    4.1185   -0.1960    0.2861 C   0  0  0  0  0  0  0  0  0  0  0  0
    5.0178   -1.4064    0.2440 C   0  0  0  0  0  0  0  0  0  0  0  0
    4.3081   -2.7437    0.1231 C   0  0  0  0  0  0  0  0  0  0  0  0
    2.9034   -2.6510   -0.0590 O   0  0  0  0  0  0  0  0  0  0  0  0
    2.5486   -1.6271   -0.9824 C   0  0  0  0  0  0  0  0  0  0  0  0
    2.7169   -0.2545   -0.3302 C   0  0  3  0  0  0  0  0  0  0  0  0
    2.6545    0.7699   -1.3434 O   0  0  0  0  0  0  0  0  0  0  0  0
    1.7163    0.1030    0.7940 C   0  0  0  0  0  0  0  0  0  0  0  0
    0.3076   -0.3754    0.5849 C   0  0  0  0  0  0  0  0  0  0  0  0
    0.0750   -1.6270    1.0698 N   0  0  0  0  0  0  0  0  0  0  0  0
   -1.1532   -2.1561    0.9000 C   0  0  0  0  0  0  0  0  0  0  0  0
   -2.1919   -1.5004    0.2747 C   0  0  0  0  0  0  0  0  0  0  0  0
   -1.9550   -0.2127   -0.2024 C   0  0  0  0  0  0  0  0  0  0  0  0
   -0.6970    0.3593   -0.0549 C   0  0  0  0  0  0  0  0  0  0  0  0
   -0.5516    1.6239   -0.5404 O   0  0  0  0  0  0  0  0  0  0  0  0
    5.6890   -1.2789   -0.6131 H   0  0  0  0  0  0  0  0  0  0  0  0
    5.6462   -1.4090    1.1415 H   0  0  0  0  0  0  0  0  0  0  0  0
    4.4834   -3.3478    1.0196 H   0  0  0  0  0  0  0  0  0  0  0  0
    4.7285   -3.3166   -0.7140 H   0  0  0  0  0  0  0  0  0  0  0  0
    3.1587   -1.7183   -1.8911 H   0  0  0  0  0  0  0  0  0  0  0  0
    1.5194   -1.7948   -1.3130 H   0  0  0  0  0  0  0  0  0  0  0  0
    3.1914    1.5174   -1.0068 H   0  0  0  0  0  0  0  0  0  0  0  0
    2.0672   -0.3158    1.7463 H   0  0  0  0  0  0  0  0  0  0  0  0
    1.7093    1.1908    0.9522 H   0  0  0  0  0  0  0  0  0  0  0  0
   -1.2769   -3.1642    1.2936 H   0  0  0  0  0  0  0  0  0  0  0  0
   -3.1617   -1.9667    0.1634 H   0  0  0  0  0  0  0  0  0  0  0  0
   -2.7466    0.3420   -0.6940 H   0  0  0  0  0  0  0  0  0  0  0  0
    0.3714    1.9094   -0.4548 H   0  0  0  0  0  0  0  0  0  0  0  0
  1  2  2  0  0  0  0
  2  7  1  0  0  0  0
  2  3  1  0  0  0  0
  3  4  1  0  0  0  0
  3 17  1  0  0  0  0
  3 18  1  0  0  0  0
  4  5  1  0  0  0  0
  4 19  1  0  0  0  0
  4 20  1  0  0  0  0
  5  6  1  0  0  0  0
  6  7  1  0  0  0  0
  6 21  1  0  0  0  0
  6 22  1  0  0  0  0
  7  8  1  0  0  0  0
  7  9  1  0  0  0  0
  8 23  1  0  0  0  0
  9 10  1  0  0  0  0
  9 24  1  0  0  0  0
  9 25  1  0  0  0  0
 10 15  2  0  0  0  0
 10 11  1  0  0  0  0
 11 12  2  0  0  0  0
 12 13  1  0  0  0  0
 12 26  1  0  0  0  0
 13 14  2  0  0  0  0
 13 27  1  0  0  0  0
 14 15  1  0  0  0  0
 14 28  1  0  0  0  0
 15 16  1  0  0  0  0
 16 29  1  0  0  0  0
M  END
$$$$
