
 OpenBabel03202621392D

 28 30  0  0  1  0  0  0  0  0999 V2000
    0.6671   -3.7282   -0.5153 O   0  5  0  0  0  0  0  0  0  0  0  0
   -0.1304   -2.9023   -1.0606 C   0  0  0  0  0  0  0  0  0  0  0  0
   -0.6382   -2.9664   -2.3192 C   0  0  0  0  0  0  0  0  0  0  0  0
   -1.6786   -2.2587   -2.8583 O   0  0  0  0  0  0  0  0  0  0  0  0
   -2.5697   -1.7567   -1.8664 C   0  0  0  0  0  0  0  0  0  0  0  0
   -1.8442   -0.8744   -0.8586 C   0  0  0  0  0  0  0  0  0  0  0  0
   -0.7071   -1.7071    0.0000 C   0  0  3  0  0  0  0  0  0  0  0  0
    0.0000   -1.0000    0.0000 N   0  0  3  0  0  0  0  0  0  0  0  0
   -0.0832    0.2250    0.9195 C   0  0  0  0  0  0  0  0  0  0  0  0
    1.4006    0.4051    0.4966 C   0  0  1  0  0  0  0  0  0  0  0  0
    2.7678    0.6220    1.0678 C   0  0  0  0  0  0  0  0  0  0  0  0
    3.5856   -0.4274    0.5083 O   0  0  0  0  0  0  0  0  0  0  0  0
    2.6625   -1.4121   -0.0584 C   0  0  0  0  0  0  0  0  0  0  0  0
    1.3493   -1.1432    0.6389 C   0  0  2  0  0  0  0  0  0  0  0  0
   -0.2698   -3.6884   -3.0370 H   0  0  0  0  0  0  0  0  0  0  0  0
   -3.1061   -2.5860   -1.3856 H   0  0  0  0  0  0  0  0  0  0  0  0
   -3.3299   -1.1607   -2.3841 H   0  0  0  0  0  0  0  0  0  0  0  0
   -2.5743   -0.4427   -0.1581 H   0  0  0  0  0  0  0  0  0  0  0  0
   -1.4102   -0.0447   -1.4459 H   0  0  0  0  0  0  0  0  0  0  0  0
   -1.4637   -2.4637    0.0000 H   0  0  0  0  0  0  0  0  0  0  0  0
   -0.2694    0.0275    1.9833 H   0  0  0  0  0  0  0  0  0  0  0  0
   -0.7389    1.0353    0.5846 H   0  0  0  0  0  0  0  0  0  0  0  0
    1.4352    0.7943   -0.5430 H   0  0  0  0  0  0  0  0  0  0  0  0
    3.1940    1.5821    0.7590 H   0  0  0  0  0  0  0  0  0  0  0  0
    2.7973    0.5573    2.1604 H   0  0  0  0  0  0  0  0  0  0  0  0
    2.6294   -1.2605   -1.1432 H   0  0  0  0  0  0  0  0  0  0  0  0
    3.0674   -2.4015    0.1587 H   0  0  0  0  0  0  0  0  0  0  0  0
    1.3434   -1.5323    1.6723 H   0  0  0  0  0  0  0  0  0  0  0  0
  1  2  1  0  0  0  0
  2  7  1  0  0  0  0
  2  3  2  0  0  0  0
  3  4  1  0  0  0  0
  3 15  1  0  0  0  0
  4  5  1  0  0  0  0
  5  6  1  0  0  0  0
  5 16  1  0  0  0  0
  5 17  1  0  0  0  0
  6  7  1  0  0  0  0
  6 18  1  0  0  0  0
  6 19  1  0  0  0  0
  7  8  1  0  0  0  0
  7 20  1  0  0  0  0
  8 14  1  0  0  0  0
  8  9  1  0  0  0  0
  9 21  1  0  0  0  0
  9 22  1  0  0  0  0
 10  9  1  0  0  0  0
 10 11  1  0  0  0  0
 10 14  1  0  0  0  0
 10 23  1  6  0  0  0
 11 12  1  0  0  0  0
 11 24  1  0  0  0  0
 11 25  1  0  0  0  0
 12 13  1  0  0  0  0
 13 26  1  0  0  0  0
 13 27  1  0  0  0  0
 14 13  1  0  0  0  0
 14 28  1  1  0  0  0
M  CHG  1   1  -1
M  END
$$$$
