
 OpenBabel03202621282D

 19 21  0  0  0  0  0  0  0  0999 V2000
    1.7213    0.4612    0.0000 C   0  0  0  0  0  0  0  0  0  0  0  0
    0.9781   -0.2079    0.0000 C   0  0  0  0  0  0  0  0  0  0  0  0
    1.0827   -1.2024    0.0000 C   0  0  0  0  0  0  0  0  0  0  0  0
    0.1691   -1.6092    0.0000 N   0  0  0  0  0  0  0  0  0  0  0  0
   -0.0388   -2.5873    0.0000 C   0  0  0  0  0  0  0  0  0  0  0  0
    0.6303   -3.3305    0.0000 N   0  0  0  0  0  0  0  0  0  0  0  0
    0.1303   -4.1965    0.0000 N   0  0  0  0  0  0  0  0  0  0  0  0
   -0.8478   -3.9886    0.0000 C   0  0  0  0  0  0  0  0  0  0  0  0
   -0.9523   -2.9941    0.0000 N   0  0  0  0  0  0  0  0  0  0  0  0
   -1.8184   -2.4941    0.0000 N   0  0  0  0  0  0  0  0  0  0  0  0
   -2.6844   -2.9941    0.0000 C   0  0  0  0  0  0  0  0  0  0  0  0
   -3.5504   -2.4941    0.0000 C   0  0  0  0  0  0  0  0  0  0  0  0
   -4.4164   -2.9941    0.0000 C   0  0  0  0  0  0  0  0  0  0  0  0
   -5.2825   -2.4941    0.0000 C   0  0  0  0  0  0  0  0  0  0  0  0
   -5.2825   -1.4941    0.0000 C   0  0  0  0  0  0  0  0  0  0  0  0
   -4.4164   -0.9941    0.0000 C   0  0  0  0  0  0  0  0  0  0  0  0
   -3.5504   -1.4941    0.0000 C   0  0  0  0  0  0  0  0  0  0  0  0
   -0.5000   -0.8660    0.0000 N   0  0  0  0  0  0  0  0  0  0  0  0
    0.0000   -0.0000    0.0000 N   0  0  0  0  0  0  0  0  0  0  0  0
  1  2  1  0  0  0  0
  2 19  1  0  0  0  0
  2  3  2  0  0  0  0
  3  4  1  0  0  0  0
  4  5  1  0  0  0  0
  4 18  1  0  0  0  0
  5  9  1  0  0  0  0
  5  6  2  0  0  0  0
  6  7  1  0  0  0  0
  7  8  2  0  0  0  0
  8  9  1  0  0  0  0
  9 10  1  0  0  0  0
 10 11  2  3  0  0  0
 11 12  1  0  0  0  0
 12 17  2  0  0  0  0
 12 13  1  0  0  0  0
 13 14  2  0  0  0  0
 14 15  1  0  0  0  0
 15 16  2  0  0  0  0
 16 17  1  0  0  0  0
 18 19  2  0  0  0  0
M  END
$$$$
