
 OpenBabel03202621382D

 44 45  0  0  1  0  0  0  0  0999 V2000
   -2.5981    2.5000    0.0000 C   0  0  0  0  0  0  0  0  0  0  0  0
   -2.5981    1.5000    0.0000 C   0  0  1  0  0  0  0  0  0  0  0  0
   -3.8613    0.8707    0.4241 O   0  0  0  0  0  0  0  0  0  0  0  0
   -4.1335   -0.4070   -0.1622 C   0  0  0  0  0  0  0  0  0  0  0  0
   -5.6027   -0.7567   -0.4054 C   0  0  0  0  0  0  0  0  0  0  0  0
   -5.8559   -2.2440   -0.1268 C   0  0  0  0  0  0  0  0  0  0  0  0
   -7.3699   -2.3631   -0.0848 C   0  0  0  0  0  0  0  0  0  0  0  0
   -7.8822   -0.9645    0.2753 C   0  0  0  0  0  0  0  0  0  0  0  0
   -6.6521   -0.0736    0.4483 C   0  0  0  0  0  0  0  0  0  0  0  0
   -1.2597    0.7841    0.5793 C   0  0  1  0  0  0  0  0  0  0  0  0
   -1.1751   -0.7150    0.1643 C   0  0  0  0  0  0  0  0  0  0  0  0
   -1.6310   -1.5790    1.2020 O   0  0  0  0  0  0  0  0  0  0  0  0
   -0.1188    1.5537    0.0864 O   0  0  0  0  0  0  0  0  0  0  0  0
    1.1728    1.0668    0.1587 C   0  0  0  0  0  0  0  0  0  0  0  0
    2.1220    1.5285   -0.6674 C   0  0  0  0  0  0  0  0  0  0  0  0
    3.4014    1.0573   -0.8315 O   0  0  0  0  0  0  0  0  0  0  0  0
    3.8083   -0.0108    0.0283 C   0  0  0  0  0  0  0  0  0  0  0  0
    2.6812   -0.9390    0.4072 C   0  0  0  0  0  0  0  0  0  0  0  0
    1.6104   -0.0783    1.0082 C   0  0  0  0  0  0  0  0  0  0  0  0
    1.0472   -0.3687    2.0634 O   0  0  0  0  0  0  0  0  0  0  0  0
   -2.7335    2.6864    1.0936 H   0  0  0  0  0  0  0  0  0  0  0  0
   -3.5678    2.7225   -0.5177 H   0  0  0  0  0  0  0  0  0  0  0  0
   -2.5981    3.5700    0.0000 H   0  0  0  0  0  0  0  0  0  0  0  0
   -2.5041    1.1854   -1.0553 H   0  0  0  0  0  0  0  0  0  0  0  0
   -3.6523   -0.5021   -1.1389 H   0  0  0  0  0  0  0  0  0  0  0  0
   -3.7288   -1.1551    0.5138 H   0  0  0  0  0  0  0  0  0  0  0  0
   -5.8317   -0.5576   -1.4606 H   0  0  0  0  0  0  0  0  0  0  0  0
   -5.4042   -2.8991   -0.8798 H   0  0  0  0  0  0  0  0  0  0  0  0
   -5.4476   -2.5314    0.8523 H   0  0  0  0  0  0  0  0  0  0  0  0
   -7.6873   -3.1183    0.6412 H   0  0  0  0  0  0  0  0  0  0  0  0
   -7.7530   -2.6685   -1.0653 H   0  0  0  0  0  0  0  0  0  0  0  0
   -8.4933   -0.9840    1.1855 H   0  0  0  0  0  0  0  0  0  0  0  0
   -8.5179   -0.5959   -0.5375 H   0  0  0  0  0  0  0  0  0  0  0  0
   -6.8502    0.9503    0.1167 H   0  0  0  0  0  0  0  0  0  0  0  0
   -6.3501   -0.0464    1.4997 H   0  0  0  0  0  0  0  0  0  0  0  0
   -1.2756    0.8717    1.6735 H   0  0  0  0  0  0  0  0  0  0  0  0
   -0.1806   -1.0636   -0.1006 H   0  0  0  0  0  0  0  0  0  0  0  0
   -1.7263   -0.9251   -0.7523 H   0  0  0  0  0  0  0  0  0  0  0  0
   -1.1719   -1.3115    2.0226 H   0  0  0  0  0  0  0  0  0  0  0  0
    1.9410    2.3441   -1.3579 H   0  0  0  0  0  0  0  0  0  0  0  0
    4.5877   -0.5732   -0.5048 H   0  0  0  0  0  0  0  0  0  0  0  0
    4.2785    0.4228    0.9223 H   0  0  0  0  0  0  0  0  0  0  0  0
    2.2658   -1.4380   -0.4776 H   0  0  0  0  0  0  0  0  0  0  0  0
    3.0075   -1.7093    1.1126 H   0  0  0  0  0  0  0  0  0  0  0  0
  1 21  1  0  0  0  0
  1 22  1  0  0  0  0
  1 23  1  0  0  0  0
  2  1  1  0  0  0  0
  2  3  1  0  0  0  0
  2 10  1  0  0  0  0
  2 24  1  1  0  0  0
  3  4  1  0  0  0  0
  4  5  1  0  0  0  0
  4 25  1  0  0  0  0
  4 26  1  0  0  0  0
  5  9  1  0  0  0  0
  5  6  1  0  0  0  0
  5 27  1  0  0  0  0
  6  7  1  0  0  0  0
  6 28  1  0  0  0  0
  6 29  1  0  0  0  0
  7  8  1  0  0  0  0
  7 30  1  0  0  0  0
  7 31  1  0  0  0  0
  8  9  1  0  0  0  0
  8 32  1  0  0  0  0
  8 33  1  0  0  0  0
  9 34  1  0  0  0  0
  9 35  1  0  0  0  0
 10 11  1  0  0  0  0
 10 13  1  0  0  0  0
 10 36  1  1  0  0  0
 11 12  1  0  0  0  0
 11 37  1  0  0  0  0
 11 38  1  0  0  0  0
 12 39  1  0  0  0  0
 13 14  1  0  0  0  0
 14 19  1  0  0  0  0
 14 15  2  0  0  0  0
 15 16  1  0  0  0  0
 15 40  1  0  0  0  0
 16 17  1  0  0  0  0
 17 18  1  0  0  0  0
 17 41  1  0  0  0  0
 17 42  1  0  0  0  0
 18 19  1  0  0  0  0
 18 43  1  0  0  0  0
 18 44  1  0  0  0  0
 19 20  2  0  0  0  0
M  END
$$$$
