
 OpenBabel03202621332D

 22 21  0  0  1  0  0  0  0  0999 V2000
    5.2696   -0.3378    0.0000 C   0  0  0  0  0  0  0  0  0  0  0  0
    5.5275    0.9676   -0.0000 C   0  0  0  0  0  0  0  0  0  0  0  0
    4.4139    1.9176   -0.0000 C   0  0  0  0  0  0  0  0  0  0  0  0
    3.1234    1.2114    0.0000 O   0  0  0  0  0  0  0  0  0  0  0  0
    1.7321    2.0000    0.0000 C   0  0  1  0  0  0  0  0  0  0  0  0
    1.7321    3.0000    0.0000 C   0  0  0  0  0  0  0  0  0  0  0  0
    0.2860    1.9587    0.0000 C   0  0  0  0  0  0  0  0  0  0  0  0
   -0.7743    2.5356   -0.0000 O   0  0  0  0  0  0  0  0  0  0  0  0
    0.8660    0.5000    0.0000 S   0  0  0  0  0  0  0  0  0  0  0  0
    0.0000    0.0000    0.0000 C   0  0  0  0  0  0  0  0  0  0  0  0
    4.2404   -0.6848   -0.0000 H   0  0  0  0  0  0  0  0  0  0  0  0
    6.0621   -1.0561   -0.0000 H   0  0  0  0  0  0  0  0  0  0  0  0
    6.5264    1.3855   -0.0000 H   0  0  0  0  0  0  0  0  0  0  0  0
    5.1429    2.7776    0.0000 H   0  0  0  0  0  0  0  0  0  0  0  0
    4.1279    2.9470   -0.0000 H   0  0  0  0  0  0  0  0  0  0  0  0
    2.6113    2.4391    0.0000 H   0  0  0  0  0  0  0  0  0  0  0  0
    2.7053    3.8039   -0.0000 H   0  0  0  0  0  0  0  0  0  0  0  0
    0.7860    3.6379   -0.0000 H   0  0  0  0  0  0  0  0  0  0  0  0
    1.7321    4.0700    0.0000 H   0  0  0  0  0  0  0  0  0  0  0  0
   -0.9743    0.5255   -0.0000 H   0  0  0  0  0  0  0  0  0  0  0  0
    0.2808   -1.0618   -0.0000 H   0  0  0  0  0  0  0  0  0  0  0  0
   -0.9266   -0.5350    0.0000 H   0  0  0  0  0  0  0  0  0  0  0  0
  1  2  2  0  0  0  0
  1 11  1  0  0  0  0
  1 12  1  0  0  0  0
  2  3  1  0  0  0  0
  2 13  1  0  0  0  0
  3  4  1  0  0  0  0
  3 14  1  0  0  0  0
  3 15  1  0  0  0  0
  4  5  1  0  0  0  0
  5  6  1  0  0  0  0
  5  7  1  0  0  0  0
  5 16  1  1  0  0  0
  6 17  1  0  0  0  0
  6 18  1  0  0  0  0
  6 19  1  0  0  0  0
  7  8  2  0  0  0  0
  7  9  1  0  0  0  0
  9 10  1  0  0  0  0
 10 20  1  0  0  0  0
 10 21  1  0  0  0  0
 10 22  1  0  0  0  0
M  END
$$$$
