
 OpenBabel03202621282D

 17 17  0  0  1  0  0  0  0  0999 V2000
    1.7601   -0.2788    0.0000 C   0  0  0  0  0  0  0  0  0  0  0  0
    0.8090   -0.5878    0.0000 C   0  0  0  0  0  0  0  0  0  0  0  0
    0.5000   -1.5388    0.0000 C   0  0  0  0  0  0  0  0  0  0  0  0
   -0.5000   -1.5388    0.0000 N   0  0  0  0  0  0  0  0  0  0  0  0
   -1.0878   -2.3479    0.0000 C   0  0  0  0  0  0  0  0  0  0  0  0
   -0.6810   -3.2614    0.0000 C   0  0  1  0  0  0  0  0  0  0  0  0
    0.3135   -3.3659    0.0000 O   0  0  0  0  0  0  0  0  0  0  0  0
   -1.2688   -4.0704    0.0000 C   0  0  1  0  0  0  0  0  0  0  0  0
   -2.2634   -3.9659    0.0000 O   0  0  0  0  0  0  0  0  0  0  0  0
   -0.8621   -4.9840    0.0000 C   0  0  2  0  0  0  0  0  0  0  0  0
    0.1324   -5.0885    0.0000 O   0  0  0  0  0  0  0  0  0  0  0  0
   -1.4499   -5.7930    0.0000 C   0  0  0  0  0  0  0  0  0  0  0  0
   -1.0431   -6.7065    0.0000 O   0  0  0  0  0  0  0  0  0  0  0  0
   -2.4444   -5.6885    0.0000 C   0  0  0  0  0  0  0  0  0  0  0  0
   -2.8511   -4.7749    0.0000 O   0  0  0  0  0  0  0  0  0  0  0  0
   -0.8090   -0.5878    0.0000 N   0  0  0  0  0  0  0  0  0  0  0  0
    0.0000   -0.0000    0.0000 N   0  0  0  0  0  0  0  0  0  0  0  0
  1  2  1  0  0  0  0
  2 17  1  0  0  0  0
  2  3  2  0  0  0  0
  3  4  1  0  0  0  0
  4  5  1  0  0  0  0
  4 16  1  0  0  0  0
  5  6  1  0  0  0  0
  6  7  1  1  0  0  0
  6  8  1  0  0  0  0
  8  9  1  6  0  0  0
  8 10  1  0  0  0  0
 10 11  1  6  0  0  0
 10 12  1  0  0  0  0
 12 13  2  0  0  0  0
 12 14  1  0  0  0  0
 14 15  1  0  0  0  0
 16 17  2  0  0  0  0
M  END
$$$$
