
 OpenBabel03202621402D

 28 28  0  0  0  0  0  0  0  0999 V2000
   -3.5975   -5.3613   -0.0969 C   0  0  0  0  0  0  0  0  0  0  0  0
   -2.4471   -6.0500   -0.0747 C   0  0  0  0  0  0  0  0  0  0  0  0
   -1.0418   -5.5008   -0.0234 C   0  0  0  0  0  0  0  0  0  0  0  0
   -0.9356   -3.9787   -0.0277 C   0  0  0  0  0  0  0  0  0  0  0  0
    0.4969   -3.4812    0.0005 C   0  0  0  0  0  0  0  0  0  0  0  0
    1.4832   -4.1688   -0.2092 O   0  0  0  0  0  0  0  0  0  0  0  0
    0.6304   -1.9794    0.2948 C   0  0  0  0  0  0  0  0  0  0  0  0
    1.3410   -1.5367    1.1777 O   0  0  0  0  0  0  0  0  0  0  0  0
   -0.2728   -1.3310   -0.4905 O   0  0  0  0  0  0  0  0  0  0  0  0
   -0.4269    0.0254   -0.1760 C   0  0  0  0  0  0  0  0  0  0  0  0
   -1.5661    0.4969    0.3438 C   0  0  0  0  0  0  0  0  0  0  0  0
   -1.8492    1.7997    0.6512 O   0  0  0  0  0  0  0  0  0  0  0  0
   -0.9912    2.7637    0.0332 C   0  0  0  0  0  0  0  0  0  0  0  0
    0.4789    2.3923    0.0768 C   0  0  0  0  0  0  0  0  0  0  0  0
    0.6629    0.9952   -0.4513 C   0  0  0  0  0  0  0  0  0  0  0  0
    1.6746    0.6461   -1.0536 O   0  0  0  0  0  0  0  0  0  0  0  0
   -3.6418   -4.2786   -0.0764 H   0  0  0  0  0  0  0  0  0  0  0  0
   -4.5492   -5.8853   -0.1394 H   0  0  0  0  0  0  0  0  0  0  0  0
   -2.5107   -7.1376   -0.0998 H   0  0  0  0  0  0  0  0  0  0  0  0
   -0.5541   -5.8972    0.8757 H   0  0  0  0  0  0  0  0  0  0  0  0
   -0.4908   -5.9077   -0.8798 H   0  0  0  0  0  0  0  0  0  0  0  0
   -1.4441   -3.5734    0.8553 H   0  0  0  0  0  0  0  0  0  0  0  0
   -1.4147   -3.5780   -0.9280 H   0  0  0  0  0  0  0  0  0  0  0  0
   -2.4036   -0.1381    0.6031 H   0  0  0  0  0  0  0  0  0  0  0  0
   -1.3299    2.9133   -1.0004 H   0  0  0  0  0  0  0  0  0  0  0  0
   -1.1435    3.7127    0.5593 H   0  0  0  0  0  0  0  0  0  0  0  0
    1.0501    3.0904   -0.5438 H   0  0  0  0  0  0  0  0  0  0  0  0
    0.8649    2.4231    1.1004 H   0  0  0  0  0  0  0  0  0  0  0  0
  1  2  2  0  0  0  0
  1 17  1  0  0  0  0
  1 18  1  0  0  0  0
  2  3  1  0  0  0  0
  2 19  1  0  0  0  0
  3  4  1  0  0  0  0
  3 20  1  0  0  0  0
  3 21  1  0  0  0  0
  4  5  1  0  0  0  0
  4 22  1  0  0  0  0
  4 23  1  0  0  0  0
  5  6  2  0  0  0  0
  5  7  1  0  0  0  0
  7  8  2  0  0  0  0
  7  9  1  0  0  0  0
  9 10  1  0  0  0  0
 10 15  1  0  0  0  0
 10 11  2  0  0  0  0
 11 12  1  0  0  0  0
 11 24  1  0  0  0  0
 12 13  1  0  0  0  0
 13 14  1  0  0  0  0
 13 25  1  0  0  0  0
 13 26  1  0  0  0  0
 14 15  1  0  0  0  0
 14 27  1  0  0  0  0
 14 28  1  0  0  0  0
 15 16  2  0  0  0  0
M  END
$$$$
