
 OpenBabel03202621372D

 20 20  0  0  0  0  0  0  0  0999 V2000
   -2.5981    2.5000    0.0000 C   0  0  0  0  0  0  0  0  0  0  0  0
   -2.5981    1.5000    0.0000 S   0  0  0  0  0  0  0  0  0  0  0  0
   -1.4955    0.2162   -0.0000 C   0  0  0  0  0  0  0  0  0  0  0  0
   -1.8688   -0.9365   -0.0000 O   0  0  0  0  0  0  0  0  0  0  0  0
   -0.2842    0.7683   -0.0000 N   0  0  0  0  0  0  0  0  0  0  0  0
    0.9633    0.1887   -0.0000 C   0  0  0  0  0  0  0  0  0  0  0  0
    2.0002    1.1290   -0.0000 C   0  0  0  0  0  0  0  0  0  0  0  0
    3.3072    0.6869    0.0000 C   0  0  0  0  0  0  0  0  0  0  0  0
    4.6896    1.9688    0.0000 Br  0  0  0  0  0  0  0  0  0  0  0  0
    3.5730   -0.6760    0.0000 C   0  0  0  0  0  0  0  0  0  0  0  0
    2.5297   -1.6022    0.0000 C   0  0  0  0  0  0  0  0  0  0  0  0
    1.2216   -1.1712   -0.0000 C   0  0  0  0  0  0  0  0  0  0  0  0
    0.2497   -2.0929   -0.0000 F   0  0  0  0  0  0  0  0  0  0  0  0
   -1.5850    2.8956    0.0000 H   0  0  0  0  0  0  0  0  0  0  0  0
   -3.6482    2.8064    0.0000 H   0  0  0  0  0  0  0  0  0  0  0  0
   -2.5981    3.5700    0.0000 H   0  0  0  0  0  0  0  0  0  0  0  0
   -0.2750    1.7741   -0.0000 H   0  0  0  0  0  0  0  0  0  0  0  0
    1.7786    2.1933   -0.0000 H   0  0  0  0  0  0  0  0  0  0  0  0
    4.5976   -1.0308    0.0000 H   0  0  0  0  0  0  0  0  0  0  0  0
    2.7162   -2.6712    0.0000 H   0  0  0  0  0  0  0  0  0  0  0  0
  1  2  1  0  0  0  0
  1 14  1  0  0  0  0
  1 15  1  0  0  0  0
  1 16  1  0  0  0  0
  2  3  1  0  0  0  0
  3  4  2  0  0  0  0
  3  5  1  0  0  0  0
  5  6  1  0  0  0  0
  5 17  1  0  0  0  0
  6 12  2  0  0  0  0
  6  7  1  0  0  0  0
  7  8  2  0  0  0  0
  7 18  1  0  0  0  0
  8  9  1  0  0  0  0
  8 10  1  0  0  0  0
 10 11  2  0  0  0  0
 10 19  1  0  0  0  0
 11 12  1  0  0  0  0
 11 20  1  0  0  0  0
 12 13  1  0  0  0  0
M  END
$$$$
