
 OpenBabel03202621292D

 44 45  0  0  1  0  0  0  0  0999 V2000
   -3.2943    4.8812   -0.2929 C   0  0  0  0  0  0  0  0  0  0  0  0
   -4.5547    3.7061   -0.8652 S   0  0  0  0  0  0  0  0  0  0  0  0
   -4.1736    2.2205    0.1937 C   0  0  1  0  0  0  0  0  0  0  0  0
   -5.2330    1.1321   -0.0821 C   0  0  0  0  0  0  0  0  0  0  0  0
   -4.7142    0.0283   -0.8086 O   0  0  0  0  0  0  0  0  0  0  0  0
   -2.7091    1.8247   -0.0229 C   0  0  0  0  0  0  0  0  0  0  0  0
   -2.2020    0.5258    0.6095 C   0  0  0  0  0  0  0  0  0  0  0  0
   -0.7807    0.3945    0.2889 N   0  0  0  0  0  0  0  0  0  0  0  0
    0.2359    1.1848    0.7265 C   0  0  0  0  0  0  0  0  0  0  0  0
    1.2137    1.0041   -0.2159 C   0  0  0  0  0  0  0  0  0  0  0  0
    2.5180    1.6767   -0.4022 C   0  0  0  0  0  0  0  0  0  0  0  0
    3.6729    1.1434    0.4728 C   0  0  0  0  0  0  0  0  0  0  0  0
    4.9898    1.7775   -0.0354 C   0  0  0  0  0  0  0  0  0  0  0  0
    6.2441    0.9622    0.2621 C   0  0  0  0  0  0  0  0  0  0  0  0
    6.1406   -0.5153   -0.1244 C   0  0  0  0  0  0  0  0  0  0  0  0
    4.7262   -0.9597   -0.4739 C   0  0  0  0  0  0  0  0  0  0  0  0
    3.7492   -0.3942    0.5410 C   0  0  0  0  0  0  0  0  0  0  0  0
    0.8101    0.0407   -1.1066 N   0  0  0  0  0  0  0  0  0  0  0  0
   -0.4155   -0.3436   -0.7759 N   0  0  0  0  0  0  0  0  0  0  0  0
   -2.2828    4.5229   -0.4986 H   0  0  0  0  0  0  0  0  0  0  0  0
   -3.4115    5.0772    0.7759 H   0  0  0  0  0  0  0  0  0  0  0  0
   -3.4156    5.8234   -0.8343 H   0  0  0  0  0  0  0  0  0  0  0  0
   -4.3164    2.5637    1.2249 H   0  0  0  0  0  0  0  0  0  0  0  0
   -5.6022    0.7487    0.8756 H   0  0  0  0  0  0  0  0  0  0  0  0
   -6.1028    1.5117   -0.6302 H   0  0  0  0  0  0  0  0  0  0  0  0
   -5.3427   -0.7089   -0.7110 H   0  0  0  0  0  0  0  0  0  0  0  0
   -2.0903    2.6253    0.4001 H   0  0  0  0  0  0  0  0  0  0  0  0
   -2.4846    1.7993   -1.0982 H   0  0  0  0  0  0  0  0  0  0  0  0
   -2.6914   -0.3705    0.2329 H   0  0  0  0  0  0  0  0  0  0  0  0
   -2.2898    0.5393    1.7001 H   0  0  0  0  0  0  0  0  0  0  0  0
    0.1379    1.8564    1.5671 H   0  0  0  0  0  0  0  0  0  0  0  0
    2.3938    2.7512   -0.2025 H   0  0  0  0  0  0  0  0  0  0  0  0
    2.7877    1.6020   -1.4625 H   0  0  0  0  0  0  0  0  0  0  0  0
    3.4928    1.4926    1.4992 H   0  0  0  0  0  0  0  0  0  0  0  0
    5.0949    2.7818    0.3941 H   0  0  0  0  0  0  0  0  0  0  0  0
    4.9421    1.9238   -1.1226 H   0  0  0  0  0  0  0  0  0  0  0  0
    7.0937    1.4092   -0.2697 H   0  0  0  0  0  0  0  0  0  0  0  0
    6.4793    1.0420    1.3294 H   0  0  0  0  0  0  0  0  0  0  0  0
    6.5026   -1.1151    0.7209 H   0  0  0  0  0  0  0  0  0  0  0  0
    6.8092   -0.7404   -0.9623 H   0  0  0  0  0  0  0  0  0  0  0  0
    4.6744   -2.0543   -0.4753 H   0  0  0  0  0  0  0  0  0  0  0  0
    4.4580   -0.6268   -1.4839 H   0  0  0  0  0  0  0  0  0  0  0  0
    4.0829   -0.6810    1.5476 H   0  0  0  0  0  0  0  0  0  0  0  0
    2.7743   -0.8728    0.4191 H   0  0  0  0  0  0  0  0  0  0  0  0
  1  2  1  0  0  0  0
  1 20  1  0  0  0  0
  1 21  1  0  0  0  0
  1 22  1  0  0  0  0
  2  3  1  0  0  0  0
  3  4  1  0  0  0  0
  3  6  1  0  0  0  0
  3 23  1  1  0  0  0
  4  5  1  0  0  0  0
  4 24  1  0  0  0  0
  4 25  1  0  0  0  0
  5 26  1  0  0  0  0
  6  7  1  0  0  0  0
  6 27  1  0  0  0  0
  6 28  1  0  0  0  0
  7  8  1  0  0  0  0
  7 29  1  0  0  0  0
  7 30  1  0  0  0  0
  8 19  1  0  0  0  0
  8  9  1  0  0  0  0
  9 10  2  0  0  0  0
  9 31  1  0  0  0  0
 10 11  1  0  0  0  0
 10 18  1  0  0  0  0
 11 12  1  0  0  0  0
 11 32  1  0  0  0  0
 11 33  1  0  0  0  0
 12 17  1  0  0  0  0
 12 13  1  0  0  0  0
 12 34  1  0  0  0  0
 13 14  1  0  0  0  0
 13 35  1  0  0  0  0
 13 36  1  0  0  0  0
 14 15  1  0  0  0  0
 14 37  1  0  0  0  0
 14 38  1  0  0  0  0
 15 16  1  0  0  0  0
 15 39  1  0  0  0  0
 15 40  1  0  0  0  0
 16 17  1  0  0  0  0
 16 41  1  0  0  0  0
 16 42  1  0  0  0  0
 17 43  1  0  0  0  0
 17 44  1  0  0  0  0
 18 19  2  0  0  0  0
M  END
$$$$
