
 OpenBabel03202621292D

 23 23  0  0  0  0  0  0  0  0999 V2000
    3.0366   -4.0826    0.0000 C   0  0  0  0  0  0  0  0  0  0  0  0
    3.4434   -3.1691    0.0000 S   0  0  0  0  0  0  0  0  0  0  0  0
    2.4318   -1.7854    0.1601 C   0  0  0  0  0  0  0  0  0  0  0  0
    2.6994   -0.8902    0.9440 O   0  0  0  0  0  0  0  0  0  0  0  0
    1.3589   -1.7918   -0.6868 N   0  0  0  0  0  0  0  0  0  0  0  0
    0.3729   -0.7217   -0.6637 C   0  0  0  0  0  0  0  0  0  0  0  0
   -0.8320   -1.1039    0.1874 C   0  0  0  0  0  0  0  0  0  0  0  0
   -1.8724   -0.0966    0.1961 N   0  0  0  0  0  0  0  0  0  0  0  0
   -3.2015   -0.2916   -0.0510 C   0  0  0  0  0  0  0  0  0  0  0  0
   -3.8051    0.9308    0.1362 C   0  0  0  0  0  0  0  0  0  0  0  0
   -2.7567    1.7954    0.4899 C   0  0  0  0  0  0  0  0  0  0  0  0
   -1.5732    1.1722    0.5267 N   0  0  0  0  0  0  0  0  0  0  0  0
    2.6663   -4.1271    1.0449 H   0  0  0  0  0  0  0  0  0  0  0  0
    3.9649   -4.6830   -0.0491 H   0  0  0  0  0  0  0  0  0  0  0  0
    2.6013   -5.0601    0.0000 H   0  0  0  0  0  0  0  0  0  0  0  0
    1.2539   -2.5669   -1.3253 H   0  0  0  0  0  0  0  0  0  0  0  0
    0.8406    0.1945   -0.2833 H   0  0  0  0  0  0  0  0  0  0  0  0
    0.0759   -0.5313   -1.7017 H   0  0  0  0  0  0  0  0  0  0  0  0
   -0.5457   -1.2808    1.2306 H   0  0  0  0  0  0  0  0  0  0  0  0
   -1.2746   -2.0335   -0.1935 H   0  0  0  0  0  0  0  0  0  0  0  0
   -3.6007   -1.2600   -0.3150 H   0  0  0  0  0  0  0  0  0  0  0  0
   -4.8565    1.1608    0.0402 H   0  0  0  0  0  0  0  0  0  0  0  0
   -2.7995    2.8532    0.7286 H   0  0  0  0  0  0  0  0  0  0  0  0
  1  2  1  0  0  0  0
  1 13  1  0  0  0  0
  1 14  1  0  0  0  0
  1 15  1  0  0  0  0
  2  3  1  0  0  0  0
  3  4  2  0  0  0  0
  3  5  1  0  0  0  0
  5  6  1  0  0  0  0
  5 16  1  0  0  0  0
  6  7  1  0  0  0  0
  6 17  1  0  0  0  0
  6 18  1  0  0  0  0
  7  8  1  0  0  0  0
  7 19  1  0  0  0  0
  7 20  1  0  0  0  0
  8 12  1  0  0  0  0
  8  9  1  0  0  0  0
  9 10  2  0  0  0  0
  9 21  1  0  0  0  0
 10 11  1  0  0  0  0
 10 22  1  0  0  0  0
 11 12  2  0  0  0  0
 11 23  1  0  0  0  0
M  END
$$$$
