
 OpenBabel03202621382D

 25 27  0  0  0  0  0  0  0  0999 V2000
    3.5637   -3.0472    0.0844 O   0  5  0  0  0  0  0  0  0  0  0  0
    3.3616   -1.8059    0.0069 C   0  0  0  0  0  0  0  0  0  0  0  0
    4.1856   -0.7450   -0.1164 C   0  0  0  0  0  0  0  0  0  0  0  0
    3.8478    0.5931   -0.2001 O   0  0  0  0  0  0  0  0  0  0  0  0
    2.4480    0.9629   -0.0449 C   0  0  0  0  0  0  0  0  0  0  0  0
    1.4864   -0.1688    0.0152 C   0  0  0  0  0  0  0  0  0  0  0  0
    1.9973   -1.4400    0.0387 C   0  0  0  0  0  0  0  0  0  0  0  0
    0.9721   -2.3283    0.0676 N   0  0  0  0  0  0  0  0  0  0  0  0
   -0.2290   -1.6551    0.0335 C   0  0  0  0  0  0  0  0  0  0  0  0
   -1.5267   -2.1742   -0.0065 C   0  0  0  0  0  0  0  0  0  0  0  0
   -2.5773   -1.2660   -0.0564 C   0  0  0  0  0  0  0  0  0  0  0  0
   -2.3258    0.0997   -0.0249 C   0  0  0  0  0  0  0  0  0  0  0  0
   -3.3817    0.9268   -0.0811 F   0  0  0  0  0  0  0  0  0  0  0  0
   -1.0293    0.6379    0.0585 C   0  0  0  0  0  0  0  0  0  0  0  0
   -0.9078    2.1292    0.1242 C   0  0  0  0  0  0  0  0  0  0  0  0
   -0.9939    2.7224   -1.1016 F   0  0  0  0  0  0  0  0  0  0  0  0
   -1.8775    2.7215    0.8847 F   0  0  0  0  0  0  0  0  0  0  0  0
    0.2624    2.5759    0.6621 F   0  0  0  0  0  0  0  0  0  0  0  0
    0.0574   -0.2756    0.0418 C   0  0  0  0  0  0  0  0  0  0  0  0
    5.2590   -0.8645   -0.1772 H   0  0  0  0  0  0  0  0  0  0  0  0
    2.3883    1.5545    0.8724 H   0  0  0  0  0  0  0  0  0  0  0  0
    2.2020    1.6162   -0.8899 H   0  0  0  0  0  0  0  0  0  0  0  0
    1.1455   -3.3251    0.0791 H   0  0  0  0  0  0  0  0  0  0  0  0
   -1.7016   -3.2455   -0.0187 H   0  0  0  0  0  0  0  0  0  0  0  0
   -3.6017   -1.6196   -0.1156 H   0  0  0  0  0  0  0  0  0  0  0  0
  1  2  1  0  0  0  0
  2  7  1  0  0  0  0
  2  3  2  0  0  0  0
  3  4  1  0  0  0  0
  3 20  1  0  0  0  0
  4  5  1  0  0  0  0
  5  6  1  0  0  0  0
  5 21  1  0  0  0  0
  5 22  1  0  0  0  0
  6 19  1  0  0  0  0
  6  7  2  0  0  0  0
  7  8  1  0  0  0  0
  8  9  1  0  0  0  0
  8 23  1  0  0  0  0
  9 19  2  0  0  0  0
  9 10  1  0  0  0  0
 10 11  2  0  0  0  0
 10 24  1  0  0  0  0
 11 12  1  0  0  0  0
 11 25  1  0  0  0  0
 12 13  1  0  0  0  0
 12 14  2  0  0  0  0
 14 15  1  0  0  0  0
 14 19  1  0  0  0  0
 15 16  1  0  0  0  0
 15 17  1  0  0  0  0
 15 18  1  0  0  0  0
M  CHG  1   1  -1
M  END
$$$$
