
 OpenBabel03202621362D

 35 35  0  0  1  0  0  0  0  0999 V2000
    3.4464   -2.0195    0.0399 C   0  0  0  0  0  0  0  0  0  0  0  0
    2.1343   -1.4364    0.5634 C   0  0  1  0  0  0  0  0  0  0  0  0
    1.6835   -0.2199   -0.2720 C   0  0  0  0  0  0  0  0  0  0  0  0
    0.3983    0.3961    0.2190 C   0  0  0  0  0  0  0  0  0  0  0  0
   -0.8660    0.1248   -0.4645 C   0  0  0  0  0  0  0  0  0  0  0  0
   -0.2431    1.5163   -0.6056 C   0  0  0  0  0  0  0  0  0  0  0  0
    1.1090   -2.4666    0.7375 N   0  0  0  0  0  0  0  0  0  0  0  0
    0.6566   -3.2340   -0.4562 C   0  0  0  0  0  0  0  0  0  0  0  0
   -0.3660   -4.3660    0.0000 C   0  0  0  0  0  0  0  0  0  0  0  0
   -0.8660   -5.2321    0.0000 C   0  0  0  0  0  0  0  0  0  0  0  0
    0.1340   -5.2321    0.0000 C   0  0  0  0  0  0  0  0  0  0  0  0
   -1.7028   -3.1774    0.8964 S   0  0  0  0  0  0  0  0  0  0  0  0
   -3.2975   -3.7441    0.3371 C   0  0  0  0  0  0  0  0  0  0  0  0
   -3.6479   -4.9140    0.3007 O   0  0  0  0  0  0  0  0  0  0  0  0
    3.7462   -2.8992    0.6188 H   0  0  0  0  0  0  0  0  0  0  0  0
    4.2610   -1.2906    0.1286 H   0  0  0  0  0  0  0  0  0  0  0  0
    3.3774   -2.3078   -1.0157 H   0  0  0  0  0  0  0  0  0  0  0  0
    2.3507   -1.0681    1.5771 H   0  0  0  0  0  0  0  0  0  0  0  0
    1.5972   -0.5022   -1.3271 H   0  0  0  0  0  0  0  0  0  0  0  0
    2.4648    0.5425   -0.2144 H   0  0  0  0  0  0  0  0  0  0  0  0
    0.3862    0.5089    1.2996 H   0  0  0  0  0  0  0  0  0  0  0  0
   -0.8670   -0.4889   -1.3601 H   0  0  0  0  0  0  0  0  0  0  0  0
   -1.7616    0.0220    0.1387 H   0  0  0  0  0  0  0  0  0  0  0  0
    0.1713    2.3693   -0.0176 H   0  0  0  0  0  0  0  0  0  0  0  0
   -1.1732    2.1334   -0.5092 H   0  0  0  0  0  0  0  0  0  0  0  0
    0.2778   -2.0548    1.1745 H   0  0  0  0  0  0  0  0  0  0  0  0
    1.5871   -3.6410   -0.8873 H   0  0  0  0  0  0  0  0  0  0  0  0
    0.2283   -2.5917   -1.2266 H   0  0  0  0  0  0  0  0  0  0  0  0
   -1.6152   -5.0631   -0.8791 H   0  0  0  0  0  0  0  0  0  0  0  0
   -1.3856   -5.3716    1.0732 H   0  0  0  0  0  0  0  0  0  0  0  0
   -1.4010   -6.1588    0.0000 H   0  0  0  0  0  0  0  0  0  0  0  0
    0.7073   -5.2698   -1.0486 H   0  0  0  0  0  0  0  0  0  0  0  0
    0.9359   -5.0517    0.8324 H   0  0  0  0  0  0  0  0  0  0  0  0
    0.6690   -6.1588    0.0000 H   0  0  0  0  0  0  0  0  0  0  0  0
   -4.0132   -2.9475    0.0770 H   0  0  0  0  0  0  0  0  0  0  0  0
  1 15  1  0  0  0  0
  1 16  1  0  0  0  0
  1 17  1  0  0  0  0
  2  1  1  0  0  0  0
  2  3  1  0  0  0  0
  2  7  1  0  0  0  0
  2 18  1  1  0  0  0
  3  4  1  0  0  0  0
  3 19  1  0  0  0  0
  3 20  1  0  0  0  0
  4  6  1  0  0  0  0
  4  5  1  0  0  0  0
  4 21  1  0  0  0  0
  5  6  1  0  0  0  0
  5 22  1  0  0  0  0
  5 23  1  0  0  0  0
  6 24  1  0  0  0  0
  6 25  1  0  0  0  0
  7  8  1  0  0  0  0
  7 26  1  0  0  0  0
  8  9  1  0  0  0  0
  8 27  1  0  0  0  0
  8 28  1  0  0  0  0
  9 10  1  0  0  0  0
  9 11  1  0  0  0  0
  9 12  1  0  0  0  0
 10 29  1  0  0  0  0
 10 30  1  0  0  0  0
 10 31  1  0  0  0  0
 11 32  1  0  0  0  0
 11 33  1  0  0  0  0
 11 34  1  0  0  0  0
 12 13  1  0  0  0  0
 13 14  2  0  0  0  0
 13 35  1  0  0  0  0
M  END
$$$$
