
 OpenBabel03202621322D

 36 36  0  0  1  0  0  0  0  0999 V2000
    7.0622   -2.5000    0.0000 C   0  0  0  0  0  0  0  0  0  0  0  0
    7.0622   -1.5000    0.0000 S   0  0  0  0  0  0  0  0  0  0  0  0
    6.0859   -0.6224   -1.0211 C   0  0  1  0  0  0  0  0  0  0  0  0
    6.1208    0.9179   -0.6669 C   0  0  0  0  0  0  0  0  0  0  0  0
    6.7233    1.4398    0.2564 O   0  0  0  0  0  0  0  0  0  0  0  0
    5.4088    1.6754   -1.5551 O   0  0  0  0  0  0  0  0  0  0  0  0
    4.0137    1.9851   -1.3115 C   0  0  0  0  0  0  0  0  0  0  0  0
    3.6491    2.6998    0.0097 C   0  0  0  0  0  0  0  0  0  0  0  0
    3.0998    1.7273    0.9260 O   0  0  0  0  0  0  0  0  0  0  0  0
    1.7288    1.6582    0.9936 C   0  0  0  0  0  0  0  0  0  0  0  0
    0.9881    2.6258    0.9828 O   0  0  0  0  0  0  0  0  0  0  0  0
    1.3092    0.2553    0.7291 C   0  0  1  0  0  0  0  0  0  0  0  0
    0.2849   -0.4538    1.3777 O   0  0  0  0  0  0  0  0  0  0  0  0
    0.0000    0.0000    0.0000 C   0  0  1  0  0  0  0  0  0  0  0  0
   -0.8660    0.5000    0.0000 C   0  0  0  0  0  0  0  0  0  0  0  0
    5.3301   -1.5000    0.0000 C   0  0  1  0  0  0  0  0  0  0  0  0
    4.4641   -1.0000    0.0000 C   0  0  0  0  0  0  0  0  0  0  0  0
    4.9257   -3.0498    0.2247 O   0  0  0  0  0  0  0  0  0  0  0  0
    7.2862   -2.6758    1.0771 H   0  0  0  0  0  0  0  0  0  0  0  0
    8.0185   -2.6728   -0.5349 H   0  0  0  0  0  0  0  0  0  0  0  0
    7.0622   -3.5700    0.0000 H   0  0  0  0  0  0  0  0  0  0  0  0
    6.2414   -0.8533   -2.0776 H   0  0  0  0  0  0  0  0  0  0  0  0
    3.7408    2.6569   -2.1317 H   0  0  0  0  0  0  0  0  0  0  0  0
    3.4322    1.0722   -1.4629 H   0  0  0  0  0  0  0  0  0  0  0  0
    4.5124    3.1707    0.4865 H   0  0  0  0  0  0  0  0  0  0  0  0
    2.9030    3.4753   -0.1942 H   0  0  0  0  0  0  0  0  0  0  0  0
    2.0962   -0.4428    0.7375 H   0  0  0  0  0  0  0  0  0  0  0  0
    0.1197   -0.7004   -0.8256 H   0  0  0  0  0  0  0  0  0  0  0  0
   -0.8773    1.0897    0.9503 H   0  0  0  0  0  0  0  0  0  0  0  0
   -1.5836   -0.3550    0.0616 H   0  0  0  0  0  0  0  0  0  0  0  0
   -1.7926    1.0350    0.0000 H   0  0  0  0  0  0  0  0  0  0  0  0
    5.0244   -1.9414   -1.0246 H   0  0  0  0  0  0  0  0  0  0  0  0
    4.6710   -0.3320    0.8793 H   0  0  0  0  0  0  0  0  0  0  0  0
    3.7082   -1.6826    0.4720 H   0  0  0  0  0  0  0  0  0  0  0  0
    3.5375   -0.4650    0.0000 H   0  0  0  0  0  0  0  0  0  0  0  0
    4.9083   -3.1842    1.1894 H   0  0  0  0  0  0  0  0  0  0  0  0
  1  2  1  0  0  0  0
  1 19  1  0  0  0  0
  1 20  1  0  0  0  0
  1 21  1  0  0  0  0
  3  2  1  0  0  0  0
  3  4  1  0  0  0  0
  3 16  1  0  0  0  0
  3 22  1  1  0  0  0
  4  5  2  0  0  0  0
  4  6  1  0  0  0  0
  6  7  1  0  0  0  0
  7  8  1  0  0  0  0
  7 23  1  0  0  0  0
  7 24  1  0  0  0  0
  8  9  1  0  0  0  0
  8 25  1  0  0  0  0
  8 26  1  0  0  0  0
  9 10  1  0  0  0  0
 10 11  2  0  0  0  0
 12 10  1  0  0  0  0
 12 13  1  0  0  0  0
 12 14  1  0  0  0  0
 12 27  1  6  0  0  0
 13 14  1  0  0  0  0
 14 15  1  0  0  0  0
 14 28  1  6  0  0  0
 15 29  1  0  0  0  0
 15 30  1  0  0  0  0
 15 31  1  0  0  0  0
 16 17  1  0  0  0  0
 16 18  1  0  0  0  0
 16 32  1  1  0  0  0
 17 33  1  0  0  0  0
 17 34  1  0  0  0  0
 17 35  1  0  0  0  0
 18 36  1  0  0  0  0
M  END
$$$$
