
 OpenBabel03202621402D

 39 41  0  0  1  0  0  0  0  0999 V2000
    1.0248   -2.8157    0.0000 C   0  0  0  0  0  0  0  0  0  0  0  0
    1.6939   -2.0725    0.0000 C   0  0  0  0  0  0  0  0  0  0  0  0
    1.4452   -0.2310    0.4467 C   0  0  1  0  0  0  0  0  0  0  0  0
    2.2196    0.5261   -0.5618 C   0  0  0  0  0  0  0  0  0  0  0  0
    2.0387    1.5847   -1.1299 O   0  0  0  0  0  0  0  0  0  0  0  0
    3.4457   -0.1297   -0.4038 C   0  0  0  0  0  0  0  0  0  0  0  0
    3.4389   -1.4998    0.0000 C   0  0  0  0  0  0  0  0  0  0  0  0
    2.9389   -2.3658    0.0000 C   0  0  0  0  0  0  0  0  0  0  0  0
    4.9083   -1.5181    0.2343 N   0  0  0  0  0  0  0  0  0  0  0  0
    5.5748   -0.3139    0.1001 C   0  0  0  0  0  0  0  0  0  0  0  0
    6.9116    0.0666    0.2739 C   0  0  0  0  0  0  0  0  0  0  0  0
    7.2278    1.4384    0.1456 C   0  0  0  0  0  0  0  0  0  0  0  0
    6.2516    2.3886   -0.1389 C   0  0  0  0  0  0  0  0  0  0  0  0
    4.9494    1.9772   -0.3600 C   0  0  0  0  0  0  0  0  0  0  0  0
    4.6342    0.6057   -0.2656 C   0  0  0  0  0  0  0  0  0  0  0  0
    0.1659    0.3284    0.6322 N   0  0  0  0  0  0  0  0  0  0  0  0
   -0.6552   -0.5783    1.1804 C   0  0  0  0  0  0  0  0  0  0  0  0
   -1.2024   -1.0827    0.0000 C   0  0  0  0  0  0  0  0  0  0  0  0
   -2.1160   -1.4894    0.0000 C   0  0  0  0  0  0  0  0  0  0  0  0
   -0.9223   -0.2293   -1.0374 N   0  0  0  0  0  0  0  0  0  0  0  0
   -0.4111    0.8390   -0.4677 N   0  0  0  0  0  0  0  0  0  0  0  0
    1.0746   -3.3177   -1.0331 H   0  0  0  0  0  0  0  0  0  0  0  0
    1.1187   -3.4736    0.9598 H   0  0  0  0  0  0  0  0  0  0  0  0
    0.3089   -3.6109    0.0000 H   0  0  0  0  0  0  0  0  0  0  0  0
    1.3174   -1.6117   -0.9881 H   0  0  0  0  0  0  0  0  0  0  0  0
    1.4482   -1.8998    1.1396 H   0  0  0  0  0  0  0  0  0  0  0  0
    1.9399   -0.0673    1.4324 H   0  0  0  0  0  0  0  0  0  0  0  0
    3.4122   -2.8742    0.9265 H   0  0  0  0  0  0  0  0  0  0  0  0
    3.4694   -2.8693   -0.8917 H   0  0  0  0  0  0  0  0  0  0  0  0
    2.4039   -3.2924    0.0000 H   0  0  0  0  0  0  0  0  0  0  0  0
    5.3976   -2.3706    0.4648 H   0  0  0  0  0  0  0  0  0  0  0  0
    7.6873   -0.6546    0.5121 H   0  0  0  0  0  0  0  0  0  0  0  0
    8.2538    1.7684    0.2825 H   0  0  0  0  0  0  0  0  0  0  0  0
    6.4997    3.4446   -0.1975 H   0  0  0  0  0  0  0  0  0  0  0  0
    4.1776    2.7136   -0.5825 H   0  0  0  0  0  0  0  0  0  0  0  0
   -0.7178   -0.8443    2.2251 H   0  0  0  0  0  0  0  0  0  0  0  0
   -2.7199   -0.7746    0.6183 H   0  0  0  0  0  0  0  0  0  0  0  0
   -1.9040   -2.4542    0.5182 H   0  0  0  0  0  0  0  0  0  0  0  0
   -3.0935   -1.9246    0.0000 H   0  0  0  0  0  0  0  0  0  0  0  0
  1  2  1  0  0  0  0
  1 22  1  0  0  0  0
  1 23  1  0  0  0  0
  1 24  1  0  0  0  0
  2 25  1  0  0  0  0
  2 26  1  0  0  0  0
  3  2  1  0  0  0  0
  3  4  1  0  0  0  0
  3 16  1  0  0  0  0
  3 27  1  1  0  0  0
  4  5  2  0  0  0  0
  4  6  1  0  0  0  0
  6 15  1  0  0  0  0
  6  7  2  0  0  0  0
  7  8  1  0  0  0  0
  7  9  1  0  0  0  0
  8 28  1  0  0  0  0
  8 29  1  0  0  0  0
  8 30  1  0  0  0  0
  9 10  1  0  0  0  0
  9 31  1  0  0  0  0
 10 15  2  0  0  0  0
 10 11  1  0  0  0  0
 11 12  2  0  0  0  0
 11 32  1  0  0  0  0
 12 13  1  0  0  0  0
 12 33  1  0  0  0  0
 13 14  2  0  0  0  0
 13 34  1  0  0  0  0
 14 15  1  0  0  0  0
 14 35  1  0  0  0  0
 16 21  1  0  0  0  0
 16 17  1  0  0  0  0
 17 18  2  0  0  0  0
 17 36  1  0  0  0  0
 18 19  1  0  0  0  0
 18 20  1  0  0  0  0
 19 37  1  0  0  0  0
 19 38  1  0  0  0  0
 19 39  1  0  0  0  0
 20 21  2  0  0  0  0
M  END
$$$$
