
 OpenBabel03202621342D

 33 33  0  0  1  0  0  0  0  0999 V2000
    3.4641    1.0000    0.0000 C   0  0  0  0  0  0  0  0  0  0  0  0
    2.5981    1.5000    0.0000 C   0  0  2  0  0  0  0  0  0  0  0  0
    2.5716    2.9330    0.6536 C   0  0  0  0  0  0  0  0  0  0  0  0
    0.9429    3.6382    1.1183 S   0  0  0  0  0  0  0  0  0  0  0  0
    0.0624    3.4823   -0.3856 C   0  0  0  0  0  0  0  0  0  0  0  0
   -0.7005    4.3623   -0.7726 O   0  0  0  0  0  0  0  0  0  0  0  0
    1.5993    0.7558    0.7819 O   0  0  0  0  0  0  0  0  0  0  0  0
    1.5576   -0.6764    0.7511 C   0  0  0  0  0  0  0  0  0  0  0  0
    0.3747   -1.2184   -0.0623 C   0  0  2  0  0  0  0  0  0  0  0  0
    0.2151   -2.7229    0.2275 C   0  0  0  0  0  0  0  0  0  0  0  0
   -1.1002   -3.2898   -0.2973 C   0  0  0  0  0  0  0  0  0  0  0  0
   -2.2851   -2.4073    0.0781 C   0  0  0  0  0  0  0  0  0  0  0  0
   -2.0768   -1.0417   -0.3986 N   0  0  0  0  0  0  0  0  0  0  0  0
   -0.9105   -0.4429    0.2493 C   0  0  0  0  0  0  0  0  0  0  0  0
    3.2866    0.2853   -0.8471 H   0  0  0  0  0  0  0  0  0  0  0  0
    4.1411    1.7729   -0.4422 H   0  0  0  0  0  0  0  0  0  0  0  0
    4.3907    0.4650    0.0000 H   0  0  0  0  0  0  0  0  0  0  0  0
    2.0985    1.6700   -0.9697 H   0  0  0  0  0  0  0  0  0  0  0  0
    3.1490    2.9224    1.5862 H   0  0  0  0  0  0  0  0  0  0  0  0
    3.0562    3.6558   -0.0157 H   0  0  0  0  0  0  0  0  0  0  0  0
    0.1970    2.5660   -0.9724 H   0  0  0  0  0  0  0  0  0  0  0  0
    1.4464   -0.9834    1.7976 H   0  0  0  0  0  0  0  0  0  0  0  0
    2.4897   -1.1416    0.4105 H   0  0  0  0  0  0  0  0  0  0  0  0
    0.5946   -1.0860   -1.1310 H   0  0  0  0  0  0  0  0  0  0  0  0
    0.2540   -2.8960    1.3106 H   0  0  0  0  0  0  0  0  0  0  0  0
    1.0545   -3.2801   -0.2069 H   0  0  0  0  0  0  0  0  0  0  0  0
   -1.0464   -3.3935   -1.3879 H   0  0  0  0  0  0  0  0  0  0  0  0
   -1.2502   -4.2964    0.1105 H   0  0  0  0  0  0  0  0  0  0  0  0
   -2.4424   -2.4126    1.1637 H   0  0  0  0  0  0  0  0  0  0  0  0
   -3.1945   -2.8112   -0.3787 H   0  0  0  0  0  0  0  0  0  0  0  0
   -2.9006   -0.4813   -0.1805 H   0  0  0  0  0  0  0  0  0  0  0  0
   -1.0738   -0.3777    1.3320 H   0  0  0  0  0  0  0  0  0  0  0  0
   -0.8152    0.5819   -0.1226 H   0  0  0  0  0  0  0  0  0  0  0  0
  1 15  1  0  0  0  0
  1 16  1  0  0  0  0
  1 17  1  0  0  0  0
  2  1  1  0  0  0  0
  2  3  1  0  0  0  0
  2  7  1  0  0  0  0
  2 18  1  6  0  0  0
  3  4  1  0  0  0  0
  3 19  1  0  0  0  0
  3 20  1  0  0  0  0
  4  5  1  0  0  0  0
  5  6  2  0  0  0  0
  5 21  1  0  0  0  0
  7  8  1  0  0  0  0
  8 22  1  0  0  0  0
  8 23  1  0  0  0  0
  9  8  1  0  0  0  0
  9 10  1  0  0  0  0
  9 14  1  0  0  0  0
  9 24  1  1  0  0  0
 10 11  1  0  0  0  0
 10 25  1  0  0  0  0
 10 26  1  0  0  0  0
 11 12  1  0  0  0  0
 11 27  1  0  0  0  0
 11 28  1  0  0  0  0
 12 13  1  0  0  0  0
 12 29  1  0  0  0  0
 12 30  1  0  0  0  0
 13 14  1  0  0  0  0
 13 31  1  0  0  0  0
 14 32  1  0  0  0  0
 14 33  1  0  0  0  0
M  END
$$$$
