
 OpenBabel03202621362D

 59 60  0  0  1  0  0  0  0  0999 V2000
    1.5000   -1.8660    0.0000 C   0  0  0  0  0  0  0  0  0  0  0  0
    1.0000   -1.0000    0.0000 N   0  0  0  0  0  0  0  0  0  0  0  0
    0.0000   -1.0000    0.0000 S   0  0  0  0  0  0  0  0  0  0  0  0
    0.0000   -2.0000    0.0000 O   0  0  0  0  0  0  0  0  0  0  0  0
   -1.0000   -1.0000    0.0000 O   0  0  0  0  0  0  0  0  0  0  0  0
    0.0000    0.0000    0.0000 N   0  0  0  0  0  0  0  0  0  0  0  0
   -0.6621    0.9888    1.0596 C   0  0  0  0  0  0  0  0  0  0  0  0
   -2.1554    1.1419    0.9415 C   0  0  0  0  0  0  0  0  0  0  0  0
   -3.1437    0.2597    1.4581 C   0  0  0  0  0  0  0  0  0  0  0  0
   -4.3863    0.6729    1.2057 N   0  0  0  0  0  0  0  0  0  0  0  0
   -4.2367    1.8399    0.4803 O   0  0  0  0  0  0  0  0  0  0  0  0
   -2.9151    2.1125    0.3310 C   0  0  0  0  0  0  0  0  0  0  0  0
    0.4402    0.9297   -1.3449 C   0  0  1  0  0  0  0  0  0  0  0  0
    0.3298    2.4562   -1.2202 C   0  0  0  0  0  0  0  0  0  0  0  0
   -0.6934    3.0343   -1.6030 O   0  0  0  0  0  0  0  0  0  0  0  0
    1.4705    3.2495   -0.6074 C   0  0  0  0  0  0  0  0  0  0  0  0
    1.2320    4.7211   -0.3855 C   0  0  0  0  0  0  0  0  0  0  0  0
    0.0108    5.1540    0.3778 C   0  0  0  0  0  0  0  0  0  0  0  0
    2.0624    5.5485   -0.7688 O   0  0  0  0  0  0  0  0  0  0  0  0
    1.9271    0.5721   -1.7267 C   0  0  0  0  0  0  0  0  0  0  0  0
    2.7918    0.9066   -0.8996 O   0  0  0  0  0  0  0  0  0  0  0  0
    2.3406   -0.1814   -3.0113 C   0  0  2  0  0  0  0  0  0  0  0  0
    1.2483   -1.0833   -3.6483 C   0  0  0  0  0  0  0  0  0  0  0  0
    1.1757   -2.5599   -3.2263 C   0  0  0  0  0  0  0  0  0  0  0  0
   -0.1762   -2.9076   -2.9635 O   0  0  0  0  0  0  0  0  0  0  0  0
    3.6804   -0.9656   -2.9171 C   0  0  0  0  0  0  0  0  0  0  0  0
    3.8728   -2.0258   -3.5196 O   0  0  0  0  0  0  0  0  0  0  0  0
    4.8252   -0.5181   -2.0846 C   0  0  0  0  0  0  0  0  0  0  0  0
    5.3716    0.7590   -2.2269 C   0  0  0  0  0  0  0  0  0  0  0  0
    6.4359    1.1497   -1.4062 C   0  0  0  0  0  0  0  0  0  0  0  0
    6.9551    0.2704   -0.4512 C   0  0  0  0  0  0  0  0  0  0  0  0
    6.4316   -1.0151   -0.3273 C   0  0  0  0  0  0  0  0  0  0  0  0
    5.3879   -1.4122   -1.1598 C   0  0  0  0  0  0  0  0  0  0  0  0
    4.9500   -2.7028   -1.0251 O   0  0  0  0  0  0  0  0  0  0  0  0
    1.9808   -1.8699    1.0470 H   0  0  0  0  0  0  0  0  0  0  0  0
    2.3642   -1.6114   -0.6651 H   0  0  0  0  0  0  0  0  0  0  0  0
    2.0350   -2.7926    0.0000 H   0  0  0  0  0  0  0  0  0  0  0  0
    1.4914   -0.2672    0.4981 H   0  0  0  0  0  0  0  0  0  0  0  0
   -0.4337    0.5938    2.0640 H   0  0  0  0  0  0  0  0  0  0  0  0
   -0.1749    1.9617    1.0540 H   0  0  0  0  0  0  0  0  0  0  0  0
   -3.0025   -0.6719    1.9903 H   0  0  0  0  0  0  0  0  0  0  0  0
   -2.7078    3.0108   -0.2294 H   0  0  0  0  0  0  0  0  0  0  0  0
   -0.2472    0.6473   -2.1458 H   0  0  0  0  0  0  0  0  0  0  0  0
    1.7498    2.8193    0.3599 H   0  0  0  0  0  0  0  0  0  0  0  0
    2.3259    3.1898   -1.2895 H   0  0  0  0  0  0  0  0  0  0  0  0
    0.2231    6.0965    0.8909 H   0  0  0  0  0  0  0  0  0  0  0  0
   -0.2471    4.4100    1.1348 H   0  0  0  0  0  0  0  0  0  0  0  0
   -0.8226    5.2993   -0.3119 H   0  0  0  0  0  0  0  0  0  0  0  0
    2.5304    0.6236   -3.7345 H   0  0  0  0  0  0  0  0  0  0  0  0
    1.4506   -1.0940   -4.7288 H   0  0  0  0  0  0  0  0  0  0  0  0
    0.2597   -0.6299   -3.5649 H   0  0  0  0  0  0  0  0  0  0  0  0
    1.7814   -2.8246   -2.3610 H   0  0  0  0  0  0  0  0  0  0  0  0
    1.5155   -3.1984   -4.0497 H   0  0  0  0  0  0  0  0  0  0  0  0
   -0.3150   -2.9092   -1.9940 H   0  0  0  0  0  0  0  0  0  0  0  0
    4.9852    1.4555   -2.9636 H   0  0  0  0  0  0  0  0  0  0  0  0
    6.8631    2.1451   -1.5075 H   0  0  0  0  0  0  0  0  0  0  0  0
    7.7781    0.5846    0.1879 H   0  0  0  0  0  0  0  0  0  0  0  0
    6.8438   -1.7077    0.4035 H   0  0  0  0  0  0  0  0  0  0  0  0
    4.6077   -2.9849   -1.9001 H   0  0  0  0  0  0  0  0  0  0  0  0
  1  2  1  0  0  0  0
  1 35  1  0  0  0  0
  1 36  1  0  0  0  0
  1 37  1  0  0  0  0
  2  3  1  0  0  0  0
  2 38  1  0  0  0  0
  3  4  2  0  0  0  0
  3  5  2  0  0  0  0
  3  6  1  0  0  0  0
  6  7  1  0  0  0  0
  6 13  1  0  0  0  0
  7  8  1  0  0  0  0
  7 39  1  0  0  0  0
  7 40  1  0  0  0  0
  8 12  2  0  0  0  0
  8  9  1  0  0  0  0
  9 10  2  0  0  0  0
  9 41  1  0  0  0  0
 10 11  1  0  0  0  0
 11 12  1  0  0  0  0
 12 42  1  0  0  0  0
 13 14  1  0  0  0  0
 13 20  1  0  0  0  0
 13 43  1  6  0  0  0
 14 15  2  0  0  0  0
 14 16  1  0  0  0  0
 16 17  1  0  0  0  0
 16 44  1  0  0  0  0
 16 45  1  0  0  0  0
 17 18  1  0  0  0  0
 17 19  2  0  0  0  0
 18 46  1  0  0  0  0
 18 47  1  0  0  0  0
 18 48  1  0  0  0  0
 20 21  2  0  0  0  0
 20 22  1  0  0  0  0
 22 23  1  0  0  0  0
 22 26  1  0  0  0  0
 22 49  1  6  0  0  0
 23 24  1  0  0  0  0
 23 50  1  0  0  0  0
 23 51  1  0  0  0  0
 24 25  1  0  0  0  0
 24 52  1  0  0  0  0
 24 53  1  0  0  0  0
 25 54  1  0  0  0  0
 26 27  2  0  0  0  0
 26 28  1  0  0  0  0
 28 33  2  0  0  0  0
 28 29  1  0  0  0  0
 29 30  2  0  0  0  0
 29 55  1  0  0  0  0
 30 31  1  0  0  0  0
 30 56  1  0  0  0  0
 31 32  2  0  0  0  0
 31 57  1  0  0  0  0
 32 33  1  0  0  0  0
 32 58  1  0  0  0  0
 33 34  1  0  0  0  0
 34 59  1  0  0  0  0
M  END
$$$$
