
 OpenBabel03202621352D

 18 18  0  0  0  0  0  0  0  0999 V2000
    2.5981   -1.5000    0.0000 C   0  0  0  0  0  0  0  0  0  0  0  0
    2.5981   -0.5000    0.0000 C   0  0  0  0  0  0  0  0  0  0  0  0
    3.5994    0.2244   -0.0804 O   0  0  0  0  0  0  0  0  0  0  0  0
    1.3884    0.1373    0.0948 O   0  0  0  0  0  0  0  0  0  0  0  0
    0.0147   -0.3208    0.1111 C   0  0  0  0  0  0  0  0  0  0  0  0
   -0.3537   -1.6034    0.2978 C   0  0  0  0  0  0  0  0  0  0  0  0
   -1.6351   -2.0973    0.3033 O   0  0  0  0  0  0  0  0  0  0  0  0
   -2.6857   -1.1617    0.0179 C   0  0  0  0  0  0  0  0  0  0  0  0
   -2.2861    0.2688   -0.1289 C   0  0  0  0  0  0  0  0  0  0  0  0
   -1.0218    0.7094   -0.0886 C   0  0  0  0  0  0  0  0  0  0  0  0
   -0.5833    1.8769   -0.2063 O   0  5  0  0  0  0  0  0  0  0  0  0
    2.3961   -1.6184   -1.0938 H   0  0  0  0  0  0  0  0  0  0  0  0
    3.6845   -1.7064    0.1766 H   0  0  0  0  0  0  0  0  0  0  0  0
    2.5981   -2.5700    0.0000 H   0  0  0  0  0  0  0  0  0  0  0  0
    0.3203   -2.4205    0.4794 H   0  0  0  0  0  0  0  0  0  0  0  0
   -3.1777   -1.4965   -0.9027 H   0  0  0  0  0  0  0  0  0  0  0  0
   -3.4189   -1.2473    0.8278 H   0  0  0  0  0  0  0  0  0  0  0  0
   -3.0810    0.9917   -0.2825 H   0  0  0  0  0  0  0  0  0  0  0  0
  1  2  1  0  0  0  0
  1 12  1  0  0  0  0
  1 13  1  0  0  0  0
  1 14  1  0  0  0  0
  2  3  2  0  0  0  0
  2  4  1  0  0  0  0
  4  5  1  0  0  0  0
  5 10  1  0  0  0  0
  5  6  2  0  0  0  0
  6  7  1  0  0  0  0
  6 15  1  0  0  0  0
  7  8  1  0  0  0  0
  8  9  1  0  0  0  0
  8 16  1  0  0  0  0
  8 17  1  0  0  0  0
  9 10  2  0  0  0  0
  9 18  1  0  0  0  0
 10 11  1  0  0  0  0
M  CHG  1  11  -1
M  END
$$$$
