
 OpenBabel03202621392D

 24 24  0  0  0  0  0  0  0  0999 V2000
    4.3301    2.5000    0.0000 C   0  0  0  0  0  0  0  0  0  0  0  0
    3.4641    3.0000    0.0000 O   0  0  0  0  0  0  0  0  0  0  0  0
    2.6756    2.8774    1.1089 C   0  0  0  0  0  0  0  0  0  0  0  0
    2.4002    3.8396    1.8117 O   0  0  0  0  0  0  0  0  0  0  0  0
    2.0889    1.6411    1.2572 N   0  0  0  0  0  0  0  0  0  0  0  0
    0.9354    1.2640    0.5988 C   0  0  0  0  0  0  0  0  0  0  0  0
   -0.0756    2.2135   -0.3247 S   0  0  0  0  0  0  0  0  0  0  0  0
    0.7961   -0.0962    0.7033 O   0  0  0  0  0  0  0  0  0  0  0  0
   -0.2822   -0.9003    0.2458 C   0  0  0  0  0  0  0  0  0  0  0  0
   -0.0469   -1.9613   -0.5364 C   0  0  0  0  0  0  0  0  0  0  0  0
   -0.9622   -2.8908   -0.9568 O   0  0  0  0  0  0  0  0  0  0  0  0
   -2.1713   -2.8963   -0.1868 C   0  0  0  0  0  0  0  0  0  0  0  0
   -2.7395   -1.5013   -0.0190 C   0  0  0  0  0  0  0  0  0  0  0  0
   -1.6898   -0.6784    0.6853 C   0  0  0  0  0  0  0  0  0  0  0  0
   -1.9716    0.1337    1.5609 O   0  0  0  0  0  0  0  0  0  0  0  0
    4.1783    1.8772   -0.9053 H   0  0  0  0  0  0  0  0  0  0  0  0
    5.0133    3.3285   -0.2746 H   0  0  0  0  0  0  0  0  0  0  0  0
    5.2567    1.9650    0.0000 H   0  0  0  0  0  0  0  0  0  0  0  0
    2.7275    0.8666    1.3241 H   0  0  0  0  0  0  0  0  0  0  0  0
    0.9334   -2.1924   -0.9327 H   0  0  0  0  0  0  0  0  0  0  0  0
   -1.9618   -3.3604    0.7864 H   0  0  0  0  0  0  0  0  0  0  0  0
   -2.8888   -3.5401   -0.7058 H   0  0  0  0  0  0  0  0  0  0  0  0
   -3.6521   -1.5338    0.5836 H   0  0  0  0  0  0  0  0  0  0  0  0
   -2.9593   -1.0369   -0.9864 H   0  0  0  0  0  0  0  0  0  0  0  0
  1  2  1  0  0  0  0
  1 16  1  0  0  0  0
  1 17  1  0  0  0  0
  1 18  1  0  0  0  0
  2  3  1  0  0  0  0
  3  4  2  0  0  0  0
  3  5  1  0  0  0  0
  5  6  1  0  0  0  0
  5 19  1  0  0  0  0
  6  7  2  0  0  0  0
  6  8  1  0  0  0  0
  8  9  1  0  0  0  0
  9 14  1  0  0  0  0
  9 10  2  0  0  0  0
 10 11  1  0  0  0  0
 10 20  1  0  0  0  0
 11 12  1  0  0  0  0
 12 13  1  0  0  0  0
 12 21  1  0  0  0  0
 12 22  1  0  0  0  0
 13 14  1  0  0  0  0
 13 23  1  0  0  0  0
 13 24  1  0  0  0  0
 14 15  2  0  0  0  0
M  END
$$$$
