
 OpenBabel03202621402D

 19 19  0  0  0  0  0  0  0  0999 V2000
    2.2887   -1.1996    0.1012 C   0  0  0  0  0  0  0  0  0  0  0  0
    1.3991   -0.2156   -0.0732 C   0  0  0  0  0  0  0  0  0  0  0  0
   -0.0829   -0.1988    0.0743 C   0  0  0  0  0  0  0  0  0  0  0  0
    0.1314    1.3091    0.2388 C   0  0  0  0  0  0  0  0  0  0  0  0
   -0.9708    2.2606   -0.3278 C   0  0  0  0  0  0  0  0  0  0  0  0
   -0.7277    3.3775   -0.7871 O   0  0  0  0  0  0  0  0  0  0  0  0
   -2.2419    1.7013   -0.3221 N   0  0  0  0  0  0  0  0  0  0  0  0
   -3.4206    2.4080   -0.3123 C   0  0  0  0  0  0  0  0  0  0  0  0
   -3.5916    3.6147   -0.3924 O   0  0  0  0  0  0  0  0  0  0  0  0
    1.5158    1.2513   -0.5746 C   0  0  0  0  0  0  0  0  0  0  0  0
    1.9627   -2.1807    0.4319 H   0  0  0  0  0  0  0  0  0  0  0  0
    3.3427   -1.0411   -0.0971 H   0  0  0  0  0  0  0  0  0  0  0  0
   -0.6406   -0.5146   -0.8130 H   0  0  0  0  0  0  0  0  0  0  0  0
   -0.5083   -0.6855    0.9574 H   0  0  0  0  0  0  0  0  0  0  0  0
    0.3087    1.5833    1.2966 H   0  0  0  0  0  0  0  0  0  0  0  0
   -2.3303    0.7302   -0.0742 H   0  0  0  0  0  0  0  0  0  0  0  0
   -4.2763    1.7206   -0.1922 H   0  0  0  0  0  0  0  0  0  0  0  0
    2.6014    1.3499   -0.3173 H   0  0  0  0  0  0  0  0  0  0  0  0
    1.6610    2.3214   -0.2903 H   0  0  0  0  0  0  0  0  0  0  0  0
  1  2  2  0  0  0  0
  1 11  1  0  0  0  0
  1 12  1  0  0  0  0
  2 10  1  0  0  0  0
  2  3  1  0  0  0  0
  3  4  1  0  0  0  0
  3 13  1  0  0  0  0
  3 14  1  0  0  0  0
  4  5  1  0  0  0  0
  4 10  1  0  0  0  0
  4 15  1  0  0  0  0
  5  6  2  0  0  0  0
  5  7  1  0  0  0  0
  7  8  1  0  0  0  0
  7 16  1  0  0  0  0
  8  9  2  0  0  0  0
  8 17  1  0  0  0  0
 10 18  1  0  0  0  0
 10 19  1  0  0  0  0
M  END
$$$$
