
 OpenBabel03202621322D

 19 18  0  0  1  0  0  0  0  0999 V2000
    2.5981   -1.5000    0.0000 C   0  0  0  0  0  0  0  0  0  0  0  0
    2.5981   -0.5000    0.0000 C   0  0  1  0  0  0  0  0  0  0  0  0
    3.4641    0.0000    0.0000 C   0  0  0  0  0  0  0  0  0  0  0  0
    3.4641    1.0000    0.0000 C   0  0  0  0  0  0  0  0  0  0  0  0
    3.4641    2.0000    0.0000 N   0  0  0  0  0  0  0  0  0  0  0  0
    1.7321    0.0000    0.0000 N   0  0  0  0  0  0  0  0  0  0  0  0
    1.7321    1.0000    0.0000 C   0  0  0  0  0  0  0  0  0  0  0  0
    0.2593   -0.5753    0.0000 C   0  0  0  0  0  0  0  0  0  0  0  0
   -0.8073    0.0471    0.0000 O   0  0  0  0  0  0  0  0  0  0  0  0
    1.6484   -2.0336   -0.0000 H   0  0  0  0  0  0  0  0  0  0  0  0
    3.6947   -2.3695   -0.0000 H   0  0  0  0  0  0  0  0  0  0  0  0
    2.5981   -2.5700    0.0000 H   0  0  0  0  0  0  0  0  0  0  0  0
    3.3722   -1.0746    0.0000 H   0  0  0  0  0  0  0  0  0  0  0  0
    4.6513   -0.6878   -0.0000 H   0  0  0  0  0  0  0  0  0  0  0  0
    4.5897    0.2915    0.0000 H   0  0  0  0  0  0  0  0  0  0  0  0
    1.9828    2.0970   -0.0000 H   0  0  0  0  0  0  0  0  0  0  0  0
    0.6631    1.2816    0.0000 H   0  0  0  0  0  0  0  0  0  0  0  0
    1.7321    2.0700    0.0000 H   0  0  0  0  0  0  0  0  0  0  0  0
    0.1335   -1.6665    0.0000 H   0  0  0  0  0  0  0  0  0  0  0  0
  1 10  1  0  0  0  0
  1 11  1  0  0  0  0
  1 12  1  0  0  0  0
  2  1  1  0  0  0  0
  2  3  1  0  0  0  0
  2  6  1  0  0  0  0
  2 13  1  1  0  0  0
  3  4  1  0  0  0  0
  3 14  1  0  0  0  0
  3 15  1  0  0  0  0
  4  5  3  0  0  0  0
  6  7  1  0  0  0  0
  6  8  1  0  0  0  0
  7 16  1  0  0  0  0
  7 17  1  0  0  0  0
  7 18  1  0  0  0  0
  8  9  2  0  0  0  0
  8 19  1  0  0  0  0
M  END
$$$$
