
 OpenBabel03202621312D

 15 15  0  0  0  0  0  0  0  0999 V2000
    3.2728    0.9819    0.0000 O   0  0  0  0  0  0  0  0  0  0  0  0
    2.0518    1.0874   -0.0000 C   0  0  0  0  0  0  0  0  0  0  0  0
    1.2640   -0.0618   -0.0000 N   0  0  0  0  0  0  0  0  0  0  0  0
    1.7071   -1.3669   -0.0000 C   0  0  0  0  0  0  0  0  0  0  0  0
    0.5792   -2.1461   -0.0000 C   0  0  0  0  0  0  0  0  0  0  0  0
   -0.5413   -1.3634    0.0000 N   0  0  0  0  0  0  0  0  0  0  0  0
   -0.1196   -0.1115    0.0000 C   0  0  0  0  0  0  0  0  0  0  0  0
   -1.0004    1.0309   -0.0000 C   0  0  0  0  0  0  0  0  0  0  0  0
   -2.2911    0.9252   -0.0000 N   0  0  0  0  0  0  0  0  0  0  0  0
   -2.9633    2.1671    0.0000 O   0  0  0  0  0  0  0  0  0  0  0  0
    1.5555    2.0682    0.0000 H   0  0  0  0  0  0  0  0  0  0  0  0
    2.7616   -1.6082   -0.0000 H   0  0  0  0  0  0  0  0  0  0  0  0
    0.5101   -3.2270    0.0000 H   0  0  0  0  0  0  0  0  0  0  0  0
   -0.5315    2.0252   -0.0000 H   0  0  0  0  0  0  0  0  0  0  0  0
   -2.3016    2.8779    0.0000 H   0  0  0  0  0  0  0  0  0  0  0  0
  1  2  2  0  0  0  0
  2  3  1  0  0  0  0
  2 11  1  0  0  0  0
  3  7  1  0  0  0  0
  3  4  1  0  0  0  0
  4  5  2  0  0  0  0
  4 12  1  0  0  0  0
  5  6  1  0  0  0  0
  5 13  1  0  0  0  0
  6  7  2  0  0  0  0
  7  8  1  0  0  0  0
  8  9  2  3  0  0  0
  8 14  1  0  0  0  0
  9 10  1  0  0  0  0
 10 15  1  0  0  0  0
M  END
$$$$
