
 OpenBabel03202621362D

 18 19  0  0  1  0  0  0  0  0999 V2000
    2.8149   -2.0252    0.3055 O   0  0  0  0  0  0  0  0  0  0  0  0
    2.1985   -1.0058    0.0319 C   0  0  0  0  0  0  0  0  0  0  0  0
    0.8363   -0.8809    0.0274 N   0  0  0  0  0  0  0  0  0  0  0  0
   -0.0381   -1.9899    0.3627 C   0  0  0  0  0  0  0  0  0  0  0  0
   -1.3854   -1.3568    0.4790 C   0  0  2  0  0  0  0  0  0  0  0  0
   -2.1443   -0.8948   -0.7330 C   0  0  1  0  0  0  0  0  0  0  0  0
   -3.5593   -0.7792   -0.5310 O   0  0  0  0  0  0  0  0  0  0  0  0
   -1.2839    0.0703    0.0407 C   0  0  2  0  0  0  0  0  0  0  0  0
    0.1389    0.3406   -0.3276 C   0  0  0  0  0  0  0  0  0  0  0  0
    2.7132   -0.0678   -0.2354 H   0  0  0  0  0  0  0  0  0  0  0  0
    0.0013   -2.7308   -0.4428 H   0  0  0  0  0  0  0  0  0  0  0  0
    0.2928   -2.4520    1.2977 H   0  0  0  0  0  0  0  0  0  0  0  0
   -1.9157   -1.5981    1.3881 H   0  0  0  0  0  0  0  0  0  0  0  0
   -1.8019   -1.2282   -1.7065 H   0  0  0  0  0  0  0  0  0  0  0  0
   -3.8560    0.1458   -0.5662 H   0  0  0  0  0  0  0  0  0  0  0  0
   -1.7419    0.8425    0.6386 H   0  0  0  0  0  0  0  0  0  0  0  0
    0.2632    0.5244   -1.3992 H   0  0  0  0  0  0  0  0  0  0  0  0
    0.5666    1.1768    0.2344 H   0  0  0  0  0  0  0  0  0  0  0  0
  1  2  2  0  0  0  0
  2  3  1  0  0  0  0
  2 10  1  0  0  0  0
  3  9  1  0  0  0  0
  3  4  1  0  0  0  0
  4 11  1  0  0  0  0
  4 12  1  0  0  0  0
  5  4  1  0  0  0  0
  5  6  1  0  0  0  0
  5  8  1  0  0  0  0
  5 13  1  1  0  0  0
  6  7  1  0  0  0  0
  6  8  1  0  0  0  0
  6 14  1  6  0  0  0
  7 15  1  0  0  0  0
  8  9  1  0  0  0  0
  8 16  1  1  0  0  0
  9 17  1  0  0  0  0
  9 18  1  0  0  0  0
M  END
$$$$
