
 OpenBabel03202621302D

 18 17  0  0  0  0  0  0  0  0999 V2000
    4.0000    0.0000    0.0000 C   0  0  0  0  0  0  0  0  0  0  0  0
    3.5000    0.8660    0.0000 S   0  0  0  0  0  0  0  0  0  0  0  0
    2.2454    1.0035   -1.0340 C   0  0  0  0  0  0  0  0  0  0  0  0
    1.7681    2.0315   -1.4942 O   0  0  0  0  0  0  0  0  0  0  0  0
    2.0000    0.0000    0.0000 C   0  0  0  0  0  0  0  0  0  0  0  0
    2.0000   -1.0000    0.0000 C   0  0  0  0  0  0  0  0  0  0  0  0
    2.8660   -0.5000    0.0000 C   0  0  0  0  0  0  0  0  0  0  0  0
    1.0000    0.0000    0.0000 C   0  0  0  0  0  0  0  0  0  0  0  0
    0.0000    0.0000    0.0000 N   0  0  0  0  0  0  0  0  0  0  0  0
    4.6908    0.2200   -0.9108 H   0  0  0  0  0  0  0  0  0  0  0  0
    4.7634    0.2756    0.8246 H   0  0  0  0  0  0  0  0  0  0  0  0
    4.5350   -0.9266    0.0000 H   0  0  0  0  0  0  0  0  0  0  0  0
    1.6076   -1.4446   -1.1251 H   0  0  0  0  0  0  0  0  0  0  0  0
    1.3906   -1.5010    1.0174 H   0  0  0  0  0  0  0  0  0  0  0  0
    2.0000   -2.0700    0.0000 H   0  0  0  0  0  0  0  0  0  0  0  0
    3.2174   -1.5719    0.9912 H   0  0  0  0  0  0  0  0  0  0  0  0
    2.8245   -0.3097    1.4855 H   0  0  0  0  0  0  0  0  0  0  0  0
    3.7926   -1.0350    0.0000 H   0  0  0  0  0  0  0  0  0  0  0  0
  1  2  1  0  0  0  0
  1 10  1  0  0  0  0
  1 11  1  0  0  0  0
  1 12  1  0  0  0  0
  2  3  1  0  0  0  0
  3  4  2  0  0  0  0
  3  5  1  0  0  0  0
  5  6  1  0  0  0  0
  5  7  1  0  0  0  0
  5  8  1  0  0  0  0
  6 13  1  0  0  0  0
  6 14  1  0  0  0  0
  6 15  1  0  0  0  0
  7 16  1  0  0  0  0
  7 17  1  0  0  0  0
  7 18  1  0  0  0  0
  8  9  3  0  0  0  0
M  END
$$$$
