
 OpenBabel03202621282D

 21 23  0  0  1  0  0  0  0  0999 V2000
    1.0248   -2.8157    0.0000 C   0  0  0  0  0  0  0  0  0  0  0  0
    1.6939   -2.0725    0.0000 C   0  0  0  0  0  0  0  0  0  0  0  0
    1.3849   -1.1215    0.0000 C   0  0  1  0  0  0  0  0  0  0  0  0
    2.0540   -0.3783    0.0000 C   0  0  0  0  0  0  0  0  0  0  0  0
    1.7450    0.5727    0.0000 O   0  0  0  0  0  0  0  0  0  0  0  0
    3.0322   -0.5862    0.0000 C   0  0  0  0  0  0  0  0  0  0  0  0
    3.4389   -1.4998    0.0000 C   0  0  0  0  0  0  0  0  0  0  0  0
    2.9389   -2.3658    0.0000 C   0  0  0  0  0  0  0  0  0  0  0  0
    4.4334   -1.3952    0.0000 N   0  0  0  0  0  0  0  0  0  0  0  0
    4.6413   -0.4171    0.0000 C   0  0  0  0  0  0  0  0  0  0  0  0
    5.5074    0.0829    0.0000 C   0  0  0  0  0  0  0  0  0  0  0  0
    5.5074    1.0829    0.0000 C   0  0  0  0  0  0  0  0  0  0  0  0
    4.6413    1.5829    0.0000 C   0  0  0  0  0  0  0  0  0  0  0  0
    3.7753    1.0829    0.0000 C   0  0  0  0  0  0  0  0  0  0  0  0
    3.7753    0.0829    0.0000 C   0  0  0  0  0  0  0  0  0  0  0  0
    0.4067   -0.9135    0.0000 N   0  0  0  0  0  0  0  0  0  0  0  0
   -0.3364   -1.5827    0.0000 C   0  0  0  0  0  0  0  0  0  0  0  0
   -1.2024   -1.0827    0.0000 C   0  0  0  0  0  0  0  0  0  0  0  0
   -2.1160   -1.4894    0.0000 C   0  0  0  0  0  0  0  0  0  0  0  0
   -0.9945   -0.1045    0.0000 N   0  0  0  0  0  0  0  0  0  0  0  0
    0.0000    0.0000    0.0000 N   0  0  0  0  0  0  0  0  0  0  0  0
  1  2  1  0  0  0  0
  3  2  1  6  0  0  0
  3  4  1  0  0  0  0
  3 16  1  0  0  0  0
  4  5  2  0  0  0  0
  4  6  1  0  0  0  0
  6 15  1  0  0  0  0
  6  7  2  0  0  0  0
  7  8  1  0  0  0  0
  7  9  1  0  0  0  0
  9 10  1  0  0  0  0
 10 15  2  0  0  0  0
 10 11  1  0  0  0  0
 11 12  2  0  0  0  0
 12 13  1  0  0  0  0
 13 14  2  0  0  0  0
 14 15  1  0  0  0  0
 16 21  1  0  0  0  0
 16 17  1  0  0  0  0
 17 18  2  0  0  0  0
 18 19  1  0  0  0  0
 18 20  1  0  0  0  0
 20 21  2  0  0  0  0
M  END
$$$$
