
 OpenBabel03202621362D

 41 42  0  0  1  0  0  0  0  0999 V2000
    3.4641    3.0000    0.0000 C   0  0  0  0  0  0  0  0  0  0  0  0
    4.3301    2.5000    0.0000 C   0  0  1  0  0  0  0  0  0  0  0  0
    5.5732    3.2446    0.6347 C   0  0  0  0  0  0  0  0  0  0  0  0
    6.9114    2.5807    0.3374 C   0  0  0  0  0  0  0  0  0  0  0  0
    6.7841    1.1052    0.0114 C   0  0  0  0  0  0  0  0  0  0  0  0
    5.5858    0.4258    0.6729 C   0  0  0  0  0  0  0  0  0  0  0  0
    4.2916    1.1341    0.6192 N   0  0  0  0  0  0  0  0  0  0  0  0
    3.2262    0.2173    0.1113 C   0  0  0  0  0  0  0  0  0  0  0  0
    1.7874    0.7543    0.2499 C   0  0  2  0  0  0  0  0  0  0  0  0
    1.3983    1.4149   -0.9766 O   0  0  0  0  0  0  0  0  0  0  0  0
    0.7677   -0.3366    0.5623 C   0  0  0  0  0  0  0  0  0  0  0  0
   -0.3340    0.3516    1.1798 O   0  0  0  0  0  0  0  0  0  0  0  0
   -1.5797   -0.0330    0.7164 C   0  0  0  0  0  0  0  0  0  0  0  0
   -2.3992    0.9305    0.2716 C   0  0  0  0  0  0  0  0  0  0  0  0
   -3.6631    0.7675   -0.2258 O   0  0  0  0  0  0  0  0  0  0  0  0
   -4.1074   -0.5918   -0.3600 C   0  0  0  0  0  0  0  0  0  0  0  0
   -3.2390   -1.6554    0.2289 C   0  0  0  0  0  0  0  0  0  0  0  0
   -2.0315   -1.4342    0.7712 C   0  0  0  0  0  0  0  0  0  0  0  0
   -1.2575   -2.2511    1.3275 O   0  5  0  0  0  0  0  0  0  0  0  0
    3.3787    3.3033    1.0736 H   0  0  0  0  0  0  0  0  0  0  0  0
    3.7253    3.8821   -0.6367 H   0  0  0  0  0  0  0  0  0  0  0  0
    2.5375    3.5350    0.0000 H   0  0  0  0  0  0  0  0  0  0  0  0
    4.6603    2.2650   -1.0285 H   0  0  0  0  0  0  0  0  0  0  0  0
    5.4545    3.3069    1.7270 H   0  0  0  0  0  0  0  0  0  0  0  0
    5.6314    4.2848    0.2811 H   0  0  0  0  0  0  0  0  0  0  0  0
    7.3921    3.0859   -0.5104 H   0  0  0  0  0  0  0  0  0  0  0  0
    7.5820    2.7296    1.1922 H   0  0  0  0  0  0  0  0  0  0  0  0
    7.7078    0.5913    0.3060 H   0  0  0  0  0  0  0  0  0  0  0  0
    6.7079    0.9873   -1.0769 H   0  0  0  0  0  0  0  0  0  0  0  0
    5.5104   -0.5715    0.2180 H   0  0  0  0  0  0  0  0  0  0  0  0
    5.8174    0.2509    1.7300 H   0  0  0  0  0  0  0  0  0  0  0  0
    3.4363   -0.0340   -0.9365 H   0  0  0  0  0  0  0  0  0  0  0  0
    3.3020   -0.7056    0.6992 H   0  0  0  0  0  0  0  0  0  0  0  0
    1.7343    1.4997    1.0520 H   0  0  0  0  0  0  0  0  0  0  0  0
    0.4342    1.5447   -0.8958 H   0  0  0  0  0  0  0  0  0  0  0  0
    0.4804   -0.8455   -0.3669 H   0  0  0  0  0  0  0  0  0  0  0  0
    1.1728   -1.0460    1.2893 H   0  0  0  0  0  0  0  0  0  0  0  0
   -2.1231    1.9759    0.2786 H   0  0  0  0  0  0  0  0  0  0  0  0
   -4.2398   -0.7858   -1.4302 H   0  0  0  0  0  0  0  0  0  0  0  0
   -5.0967   -0.6456    0.1076 H   0  0  0  0  0  0  0  0  0  0  0  0
   -3.6269   -2.6690    0.2307 H   0  0  0  0  0  0  0  0  0  0  0  0
  1 20  1  0  0  0  0
  1 21  1  0  0  0  0
  1 22  1  0  0  0  0
  2  1  1  0  0  0  0
  2  3  1  0  0  0  0
  2  7  1  0  0  0  0
  2 23  1  6  0  0  0
  3  4  1  0  0  0  0
  3 24  1  0  0  0  0
  3 25  1  0  0  0  0
  4  5  1  0  0  0  0
  4 26  1  0  0  0  0
  4 27  1  0  0  0  0
  5  6  1  0  0  0  0
  5 28  1  0  0  0  0
  5 29  1  0  0  0  0
  6  7  1  0  0  0  0
  6 30  1  0  0  0  0
  6 31  1  0  0  0  0
  7  8  1  0  0  0  0
  8  9  1  0  0  0  0
  8 32  1  0  0  0  0
  8 33  1  0  0  0  0
  9 10  1  0  0  0  0
  9 11  1  0  0  0  0
  9 34  1  6  0  0  0
 10 35  1  0  0  0  0
 11 12  1  0  0  0  0
 11 36  1  0  0  0  0
 11 37  1  0  0  0  0
 12 13  1  0  0  0  0
 13 18  1  0  0  0  0
 13 14  2  0  0  0  0
 14 15  1  0  0  0  0
 14 38  1  0  0  0  0
 15 16  1  0  0  0  0
 16 17  1  0  0  0  0
 16 39  1  0  0  0  0
 16 40  1  0  0  0  0
 17 18  2  0  0  0  0
 17 41  1  0  0  0  0
 18 19  1  0  0  0  0
M  CHG  1  19  -1
M  END
$$$$
