
 OpenBabel03202621312D

 41 42  0  0  1  0  0  0  0  0999 V2000
    1.4945   -0.9706    0.0000 C   0  0  0  0  0  0  0  0  0  0  0  0
    0.5000   -0.8660    0.0000 C   0  0  0  0  0  0  0  0  0  0  0  0
   -0.5911   -1.2819   -0.7360 C   0  0  0  0  0  0  0  0  0  0  0  0
   -1.5948   -0.3182   -0.4893 N   0  0  0  0  0  0  0  0  0  0  0  0
   -2.8658   -0.6501    0.0943 C   0  0  1  0  0  0  0  0  0  0  0  0
   -2.6262   -1.1193    1.5678 C   0  0  0  0  0  0  0  0  0  0  0  0
   -3.9181   -1.5727    2.2537 C   0  0  0  0  0  0  0  0  0  0  0  0
   -4.9865   -1.7223    1.2608 N   0  0  0  0  0  0  0  0  0  0  0  0
   -5.4833   -2.9543    0.7522 C   0  0  0  0  0  0  0  0  0  0  0  0
   -6.4074   -2.9972   -0.0642 O   0  0  0  0  0  0  0  0  0  0  0  0
   -4.7662   -4.1364    1.0546 O   0  0  0  0  0  0  0  0  0  0  0  0
   -3.6808   -4.7024    0.0000 C   0  0  0  0  0  0  0  0  0  0  0  0
   -2.6808   -4.7024    0.0000 C   0  0  0  0  0  0  0  0  0  0  0  0
   -3.1808   -3.8364    0.0000 C   0  0  0  0  0  0  0  0  0  0  0  0
   -3.6808   -5.7024    0.0000 C   0  0  0  0  0  0  0  0  0  0  0  0
   -5.2799   -0.4477    0.5378 C   0  0  0  0  0  0  0  0  0  0  0  0
   -3.9990    0.3572    0.1377 C   0  0  2  0  0  0  0  0  0  0  0  0
   -4.1807    0.9022   -1.0938 F   0  0  0  0  0  0  0  0  0  0  0  0
   -1.0433    0.7804   -0.0101 N   0  0  0  0  0  0  0  0  0  0  0  0
    0.0561    0.3730    0.5621 N   0  0  0  0  0  0  0  0  0  0  0  0
    1.5520   -1.9281    0.5708 H   0  0  0  0  0  0  0  0  0  0  0  0
    1.8790   -0.1831    0.6997 H   0  0  0  0  0  0  0  0  0  0  0  0
    2.5586   -1.0825    0.0000 H   0  0  0  0  0  0  0  0  0  0  0  0
   -0.7598   -2.1060   -1.4180 H   0  0  0  0  0  0  0  0  0  0  0  0
   -3.2420   -1.3660   -0.6289 H   0  0  0  0  0  0  0  0  0  0  0  0
   -2.1770   -0.3063    2.1563 H   0  0  0  0  0  0  0  0  0  0  0  0
   -1.8556   -1.9010    1.6275 H   0  0  0  0  0  0  0  0  0  0  0  0
   -4.2295   -0.7929    2.9598 H   0  0  0  0  0  0  0  0  0  0  0  0
   -3.7757   -2.4880    2.8342 H   0  0  0  0  0  0  0  0  0  0  0  0
   -2.2417   -5.2146    1.0562 H   0  0  0  0  0  0  0  0  0  0  0  0
   -2.2476   -5.1542   -1.0807 H   0  0  0  0  0  0  0  0  0  0  0  0
   -1.6108   -4.7024    0.0000 H   0  0  0  0  0  0  0  0  0  0  0  0
   -3.1258   -3.3833    1.1176 H   0  0  0  0  0  0  0  0  0  0  0  0
   -3.8016   -3.2400   -0.7780 H   0  0  0  0  0  0  0  0  0  0  0  0
   -2.6458   -2.9098    0.0000 H   0  0  0  0  0  0  0  0  0  0  0  0
   -4.5290   -6.0006    0.6873 H   0  0  0  0  0  0  0  0  0  0  0  0
   -4.1543   -5.8895   -1.0260 H   0  0  0  0  0  0  0  0  0  0  0  0
   -3.6808   -6.7724    0.0000 H   0  0  0  0  0  0  0  0  0  0  0  0
   -5.8578   -0.6607   -0.3713 H   0  0  0  0  0  0  0  0  0  0  0  0
   -5.8960    0.1707    1.1936 H   0  0  0  0  0  0  0  0  0  0  0  0
   -3.7828    1.1686    0.8441 H   0  0  0  0  0  0  0  0  0  0  0  0
  1  2  1  0  0  0  0
  1 21  1  0  0  0  0
  1 22  1  0  0  0  0
  1 23  1  0  0  0  0
  2 20  1  0  0  0  0
  2  3  2  0  0  0  0
  3  4  1  0  0  0  0
  3 24  1  0  0  0  0
  4 19  1  0  0  0  0
  5  4  1  0  0  0  0
  5  6  1  0  0  0  0
  5 17  1  0  0  0  0
  5 25  1  6  0  0  0
  6  7  1  0  0  0  0
  6 26  1  0  0  0  0
  6 27  1  0  0  0  0
  7  8  1  0  0  0  0
  7 28  1  0  0  0  0
  7 29  1  0  0  0  0
  8  9  1  0  0  0  0
  8 16  1  0  0  0  0
  9 10  2  0  0  0  0
  9 11  1  0  0  0  0
 11 12  1  0  0  0  0
 12 13  1  0  0  0  0
 12 14  1  0  0  0  0
 12 15  1  0  0  0  0
 13 30  1  0  0  0  0
 13 31  1  0  0  0  0
 13 32  1  0  0  0  0
 14 33  1  0  0  0  0
 14 34  1  0  0  0  0
 14 35  1  0  0  0  0
 15 36  1  0  0  0  0
 15 37  1  0  0  0  0
 15 38  1  0  0  0  0
 16 17  1  0  0  0  0
 16 39  1  0  0  0  0
 16 40  1  0  0  0  0
 17 18  1  0  0  0  0
 17 41  1  1  0  0  0
 19 20  2  0  0  0  0
M  END
$$$$
