
 OpenBabel03202621332D

 22 22  0  0  1  0  0  0  0  0999 V2000
   -1.6730   -1.4483    0.0000 C   0  0  0  0  0  0  0  0  0  0  0  0
   -0.7071   -1.7071    0.0000 O   0  0  0  0  0  0  0  0  0  0  0  0
    0.3213   -0.7903   -0.4103 C   0  0  2  0  0  0  0  0  0  0  0  0
    0.3187    0.6572    0.1577 C   0  0  0  0  0  0  0  0  0  0  0  0
    1.8517    0.5687    0.1955 C   0  0  0  0  0  0  0  0  0  0  0  0
    1.6788   -0.9712    0.3353 C   0  0  1  0  0  0  0  0  0  0  0  0
    2.6146   -1.9657   -0.3286 C   0  0  0  0  0  0  0  0  0  0  0  0
    3.9673   -1.7315    0.0877 O   0  0  0  0  0  0  0  0  0  0  0  0
    4.6492   -0.7991   -0.5911 C   0  0  0  0  0  0  0  0  0  0  0  0
    5.8201   -0.5322   -0.3907 O   0  0  0  0  0  0  0  0  0  0  0  0
   -1.7462   -0.9720    1.0005 H   0  0  0  0  0  0  0  0  0  0  0  0
   -2.1215   -2.4562    0.0960 H   0  0  0  0  0  0  0  0  0  0  0  0
   -2.7065   -1.1714    0.0000 H   0  0  0  0  0  0  0  0  0  0  0  0
    0.4255   -0.7971   -1.5064 H   0  0  0  0  0  0  0  0  0  0  0  0
   -0.1434    0.7677    1.1478 H   0  0  0  0  0  0  0  0  0  0  0  0
   -0.0855    1.4274   -0.5085 H   0  0  0  0  0  0  0  0  0  0  0  0
    2.3127    0.9159   -0.7323 H   0  0  0  0  0  0  0  0  0  0  0  0
    2.3336    1.0668    1.0427 H   0  0  0  0  0  0  0  0  0  0  0  0
    1.5431   -1.2533    1.3917 H   0  0  0  0  0  0  0  0  0  0  0  0
    2.5428   -1.9554   -1.4238 H   0  0  0  0  0  0  0  0  0  0  0  0
    2.3483   -2.9812   -0.0063 H   0  0  0  0  0  0  0  0  0  0  0  0
    4.0445   -0.2722   -1.3479 H   0  0  0  0  0  0  0  0  0  0  0  0
  1  2  1  0  0  0  0
  1 11  1  0  0  0  0
  1 12  1  0  0  0  0
  1 13  1  0  0  0  0
  3  2  1  0  0  0  0
  3  4  1  0  0  0  0
  3  6  1  0  0  0  0
  3 14  1  1  0  0  0
  4  5  1  0  0  0  0
  4 15  1  0  0  0  0
  4 16  1  0  0  0  0
  5  6  1  0  0  0  0
  5 17  1  0  0  0  0
  5 18  1  0  0  0  0
  6  7  1  0  0  0  0
  6 19  1  6  0  0  0
  7  8  1  0  0  0  0
  7 20  1  0  0  0  0
  7 21  1  0  0  0  0
  8  9  1  0  0  0  0
  9 10  2  0  0  0  0
  9 22  1  0  0  0  0
M  END
$$$$
