
 OpenBabel03202621362D

 27 28  0  0  0  0  0  0  0  0999 V2000
   -0.0933   -1.7796    0.0000 C   0  0  0  0  0  0  0  0  0  0  0  0
   -0.5000   -0.8660    0.0000 C   0  0  0  0  0  0  0  0  0  0  0  0
   -1.5768   -0.3203    0.6839 C   0  0  0  0  0  0  0  0  0  0  0  0
   -1.9015    0.8160   -0.0106 N   0  0  0  0  0  0  0  0  0  0  0  0
   -3.1223    1.6121   -0.0077 C   0  0  0  0  0  0  0  0  0  0  0  0
   -4.4356    0.8517   -0.1340 C   0  0  0  0  0  0  0  0  0  0  0  0
   -4.4939   -0.5326   -0.4032 C   0  0  0  0  0  0  0  0  0  0  0  0
   -5.7013   -1.2331   -0.3878 C   0  0  0  0  0  0  0  0  0  0  0  0
   -6.8900   -0.5589   -0.1555 C   0  0  0  0  0  0  0  0  0  0  0  0
   -6.8757    0.8237    0.0167 C   0  0  0  0  0  0  0  0  0  0  0  0
   -5.6653    1.5420    0.0114 C   0  0  0  0  0  0  0  0  0  0  0  0
   -5.7052    3.0358    0.1092 C   0  0  0  0  0  0  0  0  0  0  0  0
   -4.7607    3.7947    0.0593 O   0  0  0  0  0  0  0  0  0  0  0  0
   -6.9554    3.5175    0.2289 O   0  0  0  0  0  0  0  0  0  0  0  0
   -0.9163    1.1525   -0.8493 N   0  0  0  0  0  0  0  0  0  0  0  0
   -0.0798    0.1353   -0.8821 N   0  0  0  0  0  0  0  0  0  0  0  0
   -0.5252   -2.1710   -0.9517 H   0  0  0  0  0  0  0  0  0  0  0  0
    0.9890   -1.5340   -0.1213 H   0  0  0  0  0  0  0  0  0  0  0  0
    0.3419   -2.7571    0.0000 H   0  0  0  0  0  0  0  0  0  0  0  0
   -2.2245   -0.7227    1.4504 H   0  0  0  0  0  0  0  0  0  0  0  0
   -3.0369    2.3024   -0.8559 H   0  0  0  0  0  0  0  0  0  0  0  0
   -3.0907    2.1688    0.9354 H   0  0  0  0  0  0  0  0  0  0  0  0
   -3.6015   -1.1101   -0.6305 H   0  0  0  0  0  0  0  0  0  0  0  0
   -5.7065   -2.3071   -0.5591 H   0  0  0  0  0  0  0  0  0  0  0  0
   -7.8311   -1.1030   -0.1346 H   0  0  0  0  0  0  0  0  0  0  0  0
   -7.8259    1.3361    0.1485 H   0  0  0  0  0  0  0  0  0  0  0  0
   -6.8339    4.4919    0.2202 H   0  0  0  0  0  0  0  0  0  0  0  0
  1  2  1  0  0  0  0
  1 17  1  0  0  0  0
  1 18  1  0  0  0  0
  1 19  1  0  0  0  0
  2 16  1  0  0  0  0
  2  3  2  0  0  0  0
  3  4  1  0  0  0  0
  3 20  1  0  0  0  0
  4  5  1  0  0  0  0
  4 15  1  0  0  0  0
  5  6  1  0  0  0  0
  5 21  1  0  0  0  0
  5 22  1  0  0  0  0
  6 11  2  0  0  0  0
  6  7  1  0  0  0  0
  7  8  2  0  0  0  0
  7 23  1  0  0  0  0
  8  9  1  0  0  0  0
  8 24  1  0  0  0  0
  9 10  2  0  0  0  0
  9 25  1  0  0  0  0
 10 11  1  0  0  0  0
 10 26  1  0  0  0  0
 11 12  1  0  0  0  0
 12 13  2  0  0  0  0
 12 14  1  0  0  0  0
 14 27  1  0  0  0  0
 15 16  2  0  0  0  0
M  END
$$$$
