
 OpenBabel03202621302D

 22 23  0  0  0  0  0  0  0  0999 V2000
    5.4484    0.9025   -0.0890 N   0  5  0  0  0  0  0  0  0  0  0  0
    4.9980   -0.1445   -0.0911 N   0  3  0  0  0  0  0  0  0  0  0  0
    4.5405   -1.3726   -0.1002 C   0  0  0  0  0  0  0  0  0  0  0  0
    5.2834   -2.5146   -0.2546 N   0  0  0  0  0  0  0  0  0  0  0  0
    4.3698   -3.4329   -0.1526 C   0  0  0  0  0  0  0  0  0  0  0  0
    3.0722   -2.9981    0.0649 N   0  0  0  0  0  0  0  0  0  0  0  0
    3.1279   -1.6903    0.1001 C   0  0  0  0  0  0  0  0  0  0  0  0
    1.9446   -0.8385    0.4044 C   0  0  0  0  0  0  0  0  0  0  0  0
    1.9503   -0.1656    1.4210 O   0  0  0  0  0  0  0  0  0  0  0  0
    0.9894   -1.2155   -0.4776 O   0  0  0  0  0  0  0  0  0  0  0  0
   -0.3218   -0.7632   -0.2408 C   0  0  0  0  0  0  0  0  0  0  0  0
   -1.2855   -1.6571    0.0164 C   0  0  0  0  0  0  0  0  0  0  0  0
   -2.7037   -1.2190    0.1645 C   0  0  0  0  0  0  0  0  0  0  0  0
   -2.8915    0.1718    0.4515 O   0  0  0  0  0  0  0  0  0  0  0  0
   -1.9099    0.9986   -0.0335 C   0  0  0  0  0  0  0  0  0  0  0  0
   -0.6761    0.6415   -0.4398 C   0  0  0  0  0  0  0  0  0  0  0  0
    0.2467    1.3285   -0.9624 O   0  5  0  0  0  0  0  0  0  0  0  0
    4.5885   -4.5093   -0.2177 H   0  0  0  0  0  0  0  0  0  0  0  0
   -1.0548   -2.7125    0.0755 H   0  0  0  0  0  0  0  0  0  0  0  0
   -3.1755   -1.7814    0.9776 H   0  0  0  0  0  0  0  0  0  0  0  0
   -3.2567   -1.4556   -0.7531 H   0  0  0  0  0  0  0  0  0  0  0  0
   -2.2493    2.0279   -0.0502 H   0  0  0  0  0  0  0  0  0  0  0  0
  1  2  2  0  0  0  0
  2  3  2  0  0  0  0
  3  7  1  0  0  0  0
  3  4  1  0  0  0  0
  4  5  2  0  0  0  0
  5  6  1  0  0  0  0
  5 18  1  0  0  0  0
  6  7  2  0  0  0  0
  7  8  1  0  0  0  0
  8  9  2  0  0  0  0
  8 10  1  0  0  0  0
 10 11  1  0  0  0  0
 11 16  1  0  0  0  0
 11 12  2  0  0  0  0
 12 13  1  0  0  0  0
 12 19  1  0  0  0  0
 13 14  1  0  0  0  0
 13 20  1  0  0  0  0
 13 21  1  0  0  0  0
 14 15  1  0  0  0  0
 15 16  2  0  0  0  0
 15 22  1  0  0  0  0
 16 17  1  0  0  0  0
M  CHG  3   1  -1   2   1  17  -1
M  END
$$$$
