
 OpenBabel03202621332D

 36 38  0  0  1  0  0  0  0  0999 V2000
    4.9853    2.9141   -0.6939 O   0  5  0  0  0  0  0  0  0  0  0  0
    5.5087    1.8041   -0.4011 C   0  0  0  0  0  0  0  0  0  0  0  0
    6.8059    1.4806   -0.2250 C   0  0  0  0  0  0  0  0  0  0  0  0
    7.2452    0.1095    0.1734 C   0  0  0  0  0  0  0  0  0  0  0  0
    6.2546   -0.6727    0.8596 O   0  0  0  0  0  0  0  0  0  0  0  0
    4.9672   -0.4048    0.4605 C   0  0  0  0  0  0  0  0  0  0  0  0
    4.5540    0.7002   -0.1917 C   0  0  0  0  0  0  0  0  0  0  0  0
    3.2971    0.8683   -0.7322 O   0  0  0  0  0  0  0  0  0  0  0  0
    2.1597    0.3753   -0.0243 C   0  0  1  0  0  0  0  0  0  0  0  0
    1.4990   -0.7336   -0.8706 C   0  0  0  0  0  0  0  0  0  0  0  0
    2.3579   -1.8396   -1.1598 O   0  0  0  0  0  0  0  0  0  0  0  0
    1.2360    1.5963    0.1602 C   0  0  0  0  0  0  0  0  0  0  0  0
   -0.1173    1.2781    0.5522 N   0  0  0  0  0  0  0  0  0  0  0  0
   -1.2874    1.7658    0.0287 C   0  0  0  0  0  0  0  0  0  0  0  0
   -2.2416    0.9027    0.5150 C   0  0  0  0  0  0  0  0  0  0  0  0
   -3.6995    0.9020    0.2177 C   0  0  0  0  0  0  0  0  0  0  0  0
   -4.4195    1.9682   -0.2860 C   0  0  0  0  0  0  0  0  0  0  0  0
   -5.8154    1.6684   -0.3872 C   0  0  0  0  0  0  0  0  0  0  0  0
   -6.0705    0.3722   -0.0216 C   0  0  0  0  0  0  0  0  0  0  0  0
   -7.5975   -0.4143   -0.0250 Cl  0  0  0  0  0  0  0  0  0  0  0  0
   -4.6971   -0.4631    0.4976 S   0  0  0  0  0  0  0  0  0  0  0  0
   -1.6470   -0.0112    1.3441 N   0  0  0  0  0  0  0  0  0  0  0  0
   -0.3610    0.2864    1.4273 N   0  0  0  0  0  0  0  0  0  0  0  0
    7.5642    2.2379   -0.3814 H   0  0  0  0  0  0  0  0  0  0  0  0
    8.1086    0.1833    0.8448 H   0  0  0  0  0  0  0  0  0  0  0  0
    7.5695   -0.4476   -0.7146 H   0  0  0  0  0  0  0  0  0  0  0  0
    4.3371   -1.2355    0.7257 H   0  0  0  0  0  0  0  0  0  0  0  0
    2.4292   -0.0208    0.9635 H   0  0  0  0  0  0  0  0  0  0  0  0
    1.1647   -0.3324   -1.8337 H   0  0  0  0  0  0  0  0  0  0  0  0
    0.6324   -1.1618   -0.3645 H   0  0  0  0  0  0  0  0  0  0  0  0
    2.7758   -2.1068   -0.3269 H   0  0  0  0  0  0  0  0  0  0  0  0
    1.6429    2.2714    0.9211 H   0  0  0  0  0  0  0  0  0  0  0  0
    1.1836    2.1742   -0.7722 H   0  0  0  0  0  0  0  0  0  0  0  0
   -1.3109    2.5917   -0.6655 H   0  0  0  0  0  0  0  0  0  0  0  0
   -3.9894    2.9356   -0.5134 H   0  0  0  0  0  0  0  0  0  0  0  0
   -6.5776    2.3672   -0.7069 H   0  0  0  0  0  0  0  0  0  0  0  0
  1  2  1  0  0  0  0
  2  7  1  0  0  0  0
  2  3  2  0  0  0  0
  3  4  1  0  0  0  0
  3 24  1  0  0  0  0
  4  5  1  0  0  0  0
  4 25  1  0  0  0  0
  4 26  1  0  0  0  0
  5  6  1  0  0  0  0
  6  7  2  0  0  0  0
  6 27  1  0  0  0  0
  7  8  1  0  0  0  0
  8  9  1  0  0  0  0
  9 10  1  0  0  0  0
  9 12  1  0  0  0  0
  9 28  1  6  0  0  0
 10 11  1  0  0  0  0
 10 29  1  0  0  0  0
 10 30  1  0  0  0  0
 11 31  1  0  0  0  0
 12 13  1  0  0  0  0
 12 32  1  0  0  0  0
 12 33  1  0  0  0  0
 13 23  1  0  0  0  0
 13 14  1  0  0  0  0
 14 15  2  0  0  0  0
 14 34  1  0  0  0  0
 15 16  1  0  0  0  0
 15 22  1  0  0  0  0
 16 21  1  0  0  0  0
 16 17  2  0  0  0  0
 17 18  1  0  0  0  0
 17 35  1  0  0  0  0
 18 19  2  0  0  0  0
 18 36  1  0  0  0  0
 19 20  1  0  0  0  0
 19 21  1  0  0  0  0
 22 23  2  0  0  0  0
M  CHG  1   1  -1
M  END
$$$$
