
 OpenBabel03202621302D

 17 17  0  0  0  0  0  0  0  0999 V2000
    3.6622    0.3393    0.0000 C   0  0  0  0  0  0  0  0  0  0  0  0
    2.9190    1.0084    0.0000 S   0  0  0  0  0  0  0  0  0  0  0  0
    1.3690    0.2823    0.3912 C   0  0  0  0  0  0  0  0  0  0  0  0
    0.6506    0.7957    1.2376 O   0  0  0  0  0  0  0  0  0  0  0  0
    1.0492   -1.0227   -0.3292 C   0  0  0  0  0  0  0  0  0  0  0  0
   -0.4058   -1.3596   -0.2708 C   0  0  0  0  0  0  0  0  0  0  0  0
   -0.9504   -2.4273    0.3052 C   0  0  0  0  0  0  0  0  0  0  0  0
   -2.3567   -2.2239   -0.0241 C   0  0  0  0  0  0  0  0  0  0  0  0
   -3.2383   -3.0048    0.2962 O   0  0  0  0  0  0  0  0  0  0  0  0
   -2.4701   -1.0579   -0.7568 N   0  0  0  0  0  0  0  0  0  0  0  0
   -1.3213   -0.5637   -0.9016 N   0  0  0  0  0  0  0  0  0  0  0  0
    3.8703    0.2960    1.0885 H   0  0  0  0  0  0  0  0  0  0  0  0
    4.4505    0.9592   -0.4677 H   0  0  0  0  0  0  0  0  0  0  0  0
    4.4574   -0.3766    0.0000 H   0  0  0  0  0  0  0  0  0  0  0  0
    1.3503   -0.9484   -1.3804 H   0  0  0  0  0  0  0  0  0  0  0  0
    1.6433   -1.8162    0.1405 H   0  0  0  0  0  0  0  0  0  0  0  0
   -0.5333   -3.2537    0.8431 H   0  0  0  0  0  0  0  0  0  0  0  0
  1  2  1  0  0  0  0
  1 12  1  0  0  0  0
  1 13  1  0  0  0  0
  1 14  1  0  0  0  0
  2  3  1  0  0  0  0
  3  4  2  0  0  0  0
  3  5  1  0  0  0  0
  5  6  1  0  0  0  0
  5 15  1  0  0  0  0
  5 16  1  0  0  0  0
  6 11  1  0  0  0  0
  6  7  2  0  0  0  0
  7  8  1  0  0  0  0
  7 17  1  0  0  0  0
  8  9  2  0  0  0  0
  8 10  1  0  0  0  0
 10 11  2  0  0  0  0
M  END
$$$$
