
 OpenBabel03202621322D

 24 23  0  0  0  0  0  0  0  0999 V2000
    5.1962   -1.0000    0.0000 C   0  0  0  0  0  0  0  0  0  0  0  0
    5.1962    0.0000    0.0000 S   0  0  0  0  0  0  0  0  0  0  0  0
    5.1547    0.5844    1.6466 C   0  0  0  0  0  0  0  0  0  0  0  0
    6.1394    1.1209    2.1422 O   0  0  0  0  0  0  0  0  0  0  0  0
    3.8787    0.3461    2.4239 C   0  0  0  0  0  0  0  0  0  0  0  0
    2.6700    0.9720    1.7318 C   0  0  0  0  0  0  0  0  0  0  0  0
    1.8695   -0.0479    1.0054 N   0  0  0  0  0  0  0  0  0  0  0  0
    0.8660    0.5000    0.0000 N   0  0  0  0  0  0  0  0  0  0  0  0
    0.8660    1.5000    0.0000 C   0  0  0  0  0  0  0  0  0  0  0  0
    0.0000    0.0000    0.0000 C   0  0  0  0  0  0  0  0  0  0  0  0
    4.5300   -1.1722   -0.8668 H   0  0  0  0  0  0  0  0  0  0  0  0
    6.2390   -1.1749   -0.3292 H   0  0  0  0  0  0  0  0  0  0  0  0
    5.1962   -2.0700    0.0000 H   0  0  0  0  0  0  0  0  0  0  0  0
    3.7563   -0.7264    2.6167 H   0  0  0  0  0  0  0  0  0  0  0  0
    4.0084    0.8249    3.4015 H   0  0  0  0  0  0  0  0  0  0  0  0
    3.0134    1.7749    1.0674 H   0  0  0  0  0  0  0  0  0  0  0  0
    2.0237    1.4254    2.4941 H   0  0  0  0  0  0  0  0  0  0  0  0
    2.4950   -0.6924    0.5106 H   0  0  0  0  0  0  0  0  0  0  0  0
    0.7436    1.7647   -1.0822 H   0  0  0  0  0  0  0  0  0  0  0  0
    0.0449    1.8372    0.7086 H   0  0  0  0  0  0  0  0  0  0  0  0
    0.8660    2.5700    0.0000 H   0  0  0  0  0  0  0  0  0  0  0  0
   -0.4163    0.1954   -1.0354 H   0  0  0  0  0  0  0  0  0  0  0  0
    0.3427   -1.0635   -0.1250 H   0  0  0  0  0  0  0  0  0  0  0  0
   -0.9266   -0.5350    0.0000 H   0  0  0  0  0  0  0  0  0  0  0  0
  1  2  1  0  0  0  0
  1 11  1  0  0  0  0
  1 12  1  0  0  0  0
  1 13  1  0  0  0  0
  2  3  1  0  0  0  0
  3  4  2  0  0  0  0
  3  5  1  0  0  0  0
  5  6  1  0  0  0  0
  5 14  1  0  0  0  0
  5 15  1  0  0  0  0
  6  7  1  0  0  0  0
  6 16  1  0  0  0  0
  6 17  1  0  0  0  0
  7  8  1  0  0  0  0
  7 18  1  0  0  0  0
  8  9  1  0  0  0  0
  8 10  1  0  0  0  0
  9 19  1  0  0  0  0
  9 20  1  0  0  0  0
  9 21  1  0  0  0  0
 10 22  1  0  0  0  0
 10 23  1  0  0  0  0
 10 24  1  0  0  0  0
M  END
$$$$
