
 OpenBabel03202621392D

 32 32  0  0  1  0  0  0  0  0999 V2000
    4.3301   -1.5000    0.0000 C   0  0  0  0  0  0  0  0  0  0  0  0
    4.3301   -0.5000    0.0000 S   0  0  0  0  0  0  0  0  0  0  0  0
    3.6273   -0.1764    1.5211 C   0  0  0  0  0  0  0  0  0  0  0  0
    4.3224    0.2505    2.9518 S   0  0  0  0  0  0  0  0  0  0  0  0
    2.3178   -0.4875    1.3176 N   0  0  0  0  0  0  0  0  0  0  0  0
    1.7321    0.0000    0.0000 C   0  0  2  0  0  0  0  0  0  0  0  0
    1.7321    1.0000    0.0000 C   0  0  0  0  0  0  0  0  0  0  0  0
    0.2440   -0.6352    0.0962 C   0  0  0  0  0  0  0  0  0  0  0  0
    0.2162   -2.0662   -0.4878 C   0  0  0  0  0  0  0  0  0  0  0  0
   -1.1238   -2.7661   -0.3084 C   0  0  0  0  0  0  0  0  0  0  0  0
   -2.3265   -1.8370   -0.3657 C   0  0  0  0  0  0  0  0  0  0  0  0
   -2.0242   -0.5494   -1.1194 C   0  0  0  0  0  0  0  0  0  0  0  0
   -0.8983    0.2441   -0.4650 C   0  0  0  0  0  0  0  0  0  0  0  0
    4.0291   -1.6782   -1.0512 H   0  0  0  0  0  0  0  0  0  0  0  0
    5.4236   -1.6752    0.0559 H   0  0  0  0  0  0  0  0  0  0  0  0
    4.3301   -2.5700    0.0000 H   0  0  0  0  0  0  0  0  0  0  0  0
    2.0760   -1.4226    1.6237 H   0  0  0  0  0  0  0  0  0  0  0  0
    2.0951   -0.5380   -0.8828 H   0  0  0  0  0  0  0  0  0  0  0  0
    2.7445    1.2895   -0.3282 H   0  0  0  0  0  0  0  0  0  0  0  0
    1.4010    1.2978    1.0277 H   0  0  0  0  0  0  0  0  0  0  0  0
    1.7321    2.0700    0.0000 H   0  0  0  0  0  0  0  0  0  0  0  0
   -0.0056   -0.7579    1.1613 H   0  0  0  0  0  0  0  0  0  0  0  0
    0.4570   -2.0170   -1.5593 H   0  0  0  0  0  0  0  0  0  0  0  0
    1.0016   -2.6798   -0.0241 H   0  0  0  0  0  0  0  0  0  0  0  0
   -1.2165   -3.5383   -1.0851 H   0  0  0  0  0  0  0  0  0  0  0  0
   -1.1408   -3.3063    0.6484 H   0  0  0  0  0  0  0  0  0  0  0  0
   -2.6525   -1.5905    0.6558 H   0  0  0  0  0  0  0  0  0  0  0  0
   -3.1713   -2.3547   -0.8412 H   0  0  0  0  0  0  0  0  0  0  0  0
   -2.9279    0.0687   -1.1751 H   0  0  0  0  0  0  0  0  0  0  0  0
   -1.7419   -0.7882   -2.1507 H   0  0  0  0  0  0  0  0  0  0  0  0
   -0.5298    0.9900   -1.1790 H   0  0  0  0  0  0  0  0  0  0  0  0
   -1.3160    0.8167    0.3768 H   0  0  0  0  0  0  0  0  0  0  0  0
  1  2  1  0  0  0  0
  1 14  1  0  0  0  0
  1 15  1  0  0  0  0
  1 16  1  0  0  0  0
  2  3  1  0  0  0  0
  3  4  2  0  0  0  0
  3  5  1  0  0  0  0
  5  6  1  0  0  0  0
  5 17  1  0  0  0  0
  6  7  1  0  0  0  0
  6  8  1  0  0  0  0
  6 18  1  6  0  0  0
  7 19  1  0  0  0  0
  7 20  1  0  0  0  0
  7 21  1  0  0  0  0
  8 13  1  0  0  0  0
  8  9  1  0  0  0  0
  8 22  1  0  0  0  0
  9 10  1  0  0  0  0
  9 23  1  0  0  0  0
  9 24  1  0  0  0  0
 10 11  1  0  0  0  0
 10 25  1  0  0  0  0
 10 26  1  0  0  0  0
 11 12  1  0  0  0  0
 11 27  1  0  0  0  0
 11 28  1  0  0  0  0
 12 13  1  0  0  0  0
 12 29  1  0  0  0  0
 12 30  1  0  0  0  0
 13 31  1  0  0  0  0
 13 32  1  0  0  0  0
M  END
$$$$
