
 OpenBabel03202621322D

  9  8  0  0  0  0  0  0  0  0999 V2000
    2.5000    0.8660    0.0000 C   0  0  0  0  0  0  0  0  0  0  0  0
    1.5000    0.8660    0.0000 S   0  0  0  0  0  0  0  0  0  0  0  0
    1.1374   -0.8517   -0.3531 C   0  0  0  0  0  0  0  0  0  0  0  0
    1.5158   -1.6592    0.6657 F   0  0  0  0  0  0  0  0  0  0  0  0
    1.7730   -1.2824   -1.4681 F   0  0  0  0  0  0  0  0  0  0  0  0
   -0.1877   -1.0384   -0.5473 F   0  0  0  0  0  0  0  0  0  0  0  0
    2.6754    0.9419    1.0915 H   0  0  0  0  0  0  0  0  0  0  0  0
    2.6715    1.8673   -0.4392 H   0  0  0  0  0  0  0  0  0  0  0  0
    3.5700    0.8660    0.0000 H   0  0  0  0  0  0  0  0  0  0  0  0
  1  2  1  0  0  0  0
  1  7  1  0  0  0  0
  1  8  1  0  0  0  0
  1  9  1  0  0  0  0
  2  3  1  0  0  0  0
  3  4  1  0  0  0  0
  3  5  1  0  0  0  0
  3  6  1  0  0  0  0
M  END
$$$$
