
 OpenBabel03202621382D

 27 28  0  0  0  0  0  0  0  0999 V2000
    0.8660   -1.5000    0.0000 C   0  0  0  0  0  0  0  0  0  0  0  0
    0.0000   -1.0000    0.0000 C   0  0  0  0  0  0  0  0  0  0  0  0
   -1.2510   -1.4999   -0.4014 C   0  0  0  0  0  0  0  0  0  0  0  0
   -2.3659   -0.7889   -0.7329 N   0  0  0  0  0  0  0  0  0  0  0  0
   -2.3204    0.5531   -0.7035 N   0  0  0  0  0  0  0  0  0  0  0  0
   -1.2044    1.1518   -0.2583 C   0  0  0  0  0  0  0  0  0  0  0  0
   -1.1812    2.6348   -0.1146 C   0  0  0  0  0  0  0  0  0  0  0  0
   -0.1091    3.2300   -0.1855 O   0  0  0  0  0  0  0  0  0  0  0  0
   -2.3428    3.3055    0.1604 O   0  0  0  0  0  0  0  0  0  0  0  0
   -3.5909    2.7123    0.4421 C   0  0  0  0  0  0  0  0  0  0  0  0
   -3.8087    1.7827    1.3868 C   0  0  0  0  0  0  0  0  0  0  0  0
   -4.9780    1.0830    1.5702 O   0  0  0  0  0  0  0  0  0  0  0  0
   -5.7994    1.0913    0.3933 C   0  0  0  0  0  0  0  0  0  0  0  0
   -6.0896    2.5100   -0.0487 C   0  0  0  0  0  0  0  0  0  0  0  0
   -4.7747    3.1878   -0.3261 C   0  0  0  0  0  0  0  0  0  0  0  0
   -4.6867    4.1384   -1.1000 O   0  0  0  0  0  0  0  0  0  0  0  0
   -0.0660    0.4144    0.0681 C   0  0  0  0  0  0  0  0  0  0  0  0
    0.5396   -2.5093    0.3620 H   0  0  0  0  0  0  0  0  0  0  0  0
    1.3473   -1.0766    0.9208 H   0  0  0  0  0  0  0  0  0  0  0  0
    1.7926   -2.0350    0.0000 H   0  0  0  0  0  0  0  0  0  0  0  0
   -1.4015   -2.5715   -0.5515 H   0  0  0  0  0  0  0  0  0  0  0  0
   -3.0562    1.4331    2.0811 H   0  0  0  0  0  0  0  0  0  0  0  0
   -5.3018    0.5142   -0.4003 H   0  0  0  0  0  0  0  0  0  0  0  0
   -6.7307    0.5695    0.6327 H   0  0  0  0  0  0  0  0  0  0  0  0
   -6.6024    3.0704    0.7396 H   0  0  0  0  0  0  0  0  0  0  0  0
   -6.6957    2.5090   -0.9590 H   0  0  0  0  0  0  0  0  0  0  0  0
    0.8336    0.9823    0.3257 H   0  0  0  0  0  0  0  0  0  0  0  0
  1  2  1  0  0  0  0
  1 18  1  0  0  0  0
  1 19  1  0  0  0  0
  1 20  1  0  0  0  0
  2 17  2  0  0  0  0
  2  3  1  0  0  0  0
  3  4  2  0  0  0  0
  3 21  1  0  0  0  0
  4  5  1  0  0  0  0
  5  6  2  0  0  0  0
  6  7  1  0  0  0  0
  6 17  1  0  0  0  0
  7  8  2  0  0  0  0
  7  9  1  0  0  0  0
  9 10  1  0  0  0  0
 10 15  1  0  0  0  0
 10 11  2  0  0  0  0
 11 12  1  0  0  0  0
 11 22  1  0  0  0  0
 12 13  1  0  0  0  0
 13 14  1  0  0  0  0
 13 23  1  0  0  0  0
 13 24  1  0  0  0  0
 14 15  1  0  0  0  0
 14 25  1  0  0  0  0
 14 26  1  0  0  0  0
 15 16  2  0  0  0  0
 17 27  1  0  0  0  0
M  END
$$$$
