
 OpenBabel03202621302D

 38 38  0  0  1  0  0  0  0  0999 V2000
    6.0622   -1.5000    0.0000 C   0  0  0  0  0  0  0  0  0  0  0  0
    6.0622   -0.5000    0.0000 S   0  0  0  0  0  0  0  0  0  0  0  0
    4.5391    0.0864    0.8477 C   0  0  2  0  0  0  0  0  0  0  0  0
    4.5942    1.6299    0.8127 C   0  0  0  0  0  0  0  0  0  0  0  0
    3.3556    2.2122    1.2165 O   0  0  0  0  0  0  0  0  0  0  0  0
    3.2330   -0.4636    0.2526 C   0  0  0  0  0  0  0  0  0  0  0  0
    2.7849    0.3495   -0.8375 O   0  0  0  0  0  0  0  0  0  0  0  0
    1.5048   -0.0587   -1.3337 C   0  0  0  0  0  0  0  0  0  0  0  0
    0.3544    0.4200   -0.4226 C   0  0  0  0  0  0  0  0  0  0  0  0
   -0.8072   -0.4793   -0.4840 N   0  0  0  0  0  0  0  0  0  0  0  0
   -0.5822   -1.7132    0.2863 C   0  0  0  0  0  0  0  0  0  0  0  0
   -1.7228   -2.6956    0.0341 C   0  0  0  0  0  0  0  0  0  0  0  0
   -3.0770   -2.0811    0.3781 C   0  0  0  0  0  0  0  0  0  0  0  0
   -3.2392   -0.7039   -0.2560 C   0  0  0  0  0  0  0  0  0  0  0  0
   -2.0228    0.1905    0.0031 C   0  0  0  0  0  0  0  0  0  0  0  0
    6.5453   -1.6795    0.9813 H   0  0  0  0  0  0  0  0  0  0  0  0
    6.8246   -1.6707   -0.7835 H   0  0  0  0  0  0  0  0  0  0  0  0
    6.0622   -2.5700    0.0000 H   0  0  0  0  0  0  0  0  0  0  0  0
    4.5980   -0.2422    1.8947 H   0  0  0  0  0  0  0  0  0  0  0  0
    4.8232    2.0110   -0.1886 H   0  0  0  0  0  0  0  0  0  0  0  0
    5.3703    2.0023    1.4874 H   0  0  0  0  0  0  0  0  0  0  0  0
    2.7766    2.1282    0.4323 H   0  0  0  0  0  0  0  0  0  0  0  0
    2.4783   -0.4483    1.0470 H   0  0  0  0  0  0  0  0  0  0  0  0
    3.3351   -1.5056   -0.0727 H   0  0  0  0  0  0  0  0  0  0  0  0
    1.5160   -1.1438   -1.4910 H   0  0  0  0  0  0  0  0  0  0  0  0
    1.3807    0.3919   -2.3245 H   0  0  0  0  0  0  0  0  0  0  0  0
    0.6730    0.5733    0.6154 H   0  0  0  0  0  0  0  0  0  0  0  0
    0.0752    1.4194   -0.7828 H   0  0  0  0  0  0  0  0  0  0  0  0
   -0.4966   -1.4995    1.3593 H   0  0  0  0  0  0  0  0  0  0  0  0
    0.3517   -2.2042   -0.0132 H   0  0  0  0  0  0  0  0  0  0  0  0
   -1.7169   -2.9986   -1.0200 H   0  0  0  0  0  0  0  0  0  0  0  0
   -1.5689   -3.6039    0.6275 H   0  0  0  0  0  0  0  0  0  0  0  0
   -3.1666   -1.9915    1.4678 H   0  0  0  0  0  0  0  0  0  0  0  0
   -3.8821   -2.7428    0.0424 H   0  0  0  0  0  0  0  0  0  0  0  0
   -4.1422   -0.2205    0.1343 H   0  0  0  0  0  0  0  0  0  0  0  0
   -3.3792   -0.8152   -1.3387 H   0  0  0  0  0  0  0  0  0  0  0  0
   -2.1780    1.1360   -0.5286 H   0  0  0  0  0  0  0  0  0  0  0  0
   -1.9443    0.4261    1.0727 H   0  0  0  0  0  0  0  0  0  0  0  0
  1  2  1  0  0  0  0
  1 16  1  0  0  0  0
  1 17  1  0  0  0  0
  1 18  1  0  0  0  0
  2  3  1  0  0  0  0
  3  4  1  0  0  0  0
  3  6  1  0  0  0  0
  3 19  1  6  0  0  0
  4  5  1  0  0  0  0
  4 20  1  0  0  0  0
  4 21  1  0  0  0  0
  5 22  1  0  0  0  0
  6  7  1  0  0  0  0
  6 23  1  0  0  0  0
  6 24  1  0  0  0  0
  7  8  1  0  0  0  0
  8  9  1  0  0  0  0
  8 25  1  0  0  0  0
  8 26  1  0  0  0  0
  9 10  1  0  0  0  0
  9 27  1  0  0  0  0
  9 28  1  0  0  0  0
 10 15  1  0  0  0  0
 10 11  1  0  0  0  0
 11 12  1  0  0  0  0
 11 29  1  0  0  0  0
 11 30  1  0  0  0  0
 12 13  1  0  0  0  0
 12 31  1  0  0  0  0
 12 32  1  0  0  0  0
 13 14  1  0  0  0  0
 13 33  1  0  0  0  0
 13 34  1  0  0  0  0
 14 15  1  0  0  0  0
 14 35  1  0  0  0  0
 14 36  1  0  0  0  0
 15 37  1  0  0  0  0
 15 38  1  0  0  0  0
M  END
$$$$
