
 OpenBabel03202621332D

 15 14  0  0  0  0  0  0  0  0999 V2000
    3.0000    0.0000    0.0000 C   0  0  0  0  0  0  0  0  0  0  0  0
    2.0000    0.0000    0.0000 S   0  0  0  0  0  0  0  0  0  0  0  0
    1.8883   -1.6798    0.0000 C   0  0  0  0  0  0  0  0  0  0  0  0
    1.8550   -3.0923   -0.0000 F   0  0  0  0  0  0  0  0  0  0  0  0
    3.1558   -2.0392   -0.0000 F   0  0  0  0  0  0  0  0  0  0  0  0
    0.5000   -0.8660    0.0000 C   0  0  0  0  0  0  0  0  0  0  0  0
   -0.3660   -1.3660    0.0000 C   0  0  0  0  0  0  0  0  0  0  0  0
    0.4837   -2.2121   -0.0000 F   0  0  0  0  0  0  0  0  0  0  0  0
   -0.0601    0.3383    0.0000 F   0  0  0  0  0  0  0  0  0  0  0  0
    3.7986   -0.7242   -0.0000 H   0  0  0  0  0  0  0  0  0  0  0  0
    3.2361    1.0773   -0.0000 H   0  0  0  0  0  0  0  0  0  0  0  0
    4.0700    0.0000    0.0000 H   0  0  0  0  0  0  0  0  0  0  0  0
   -1.2890   -0.6926   -0.0000 H   0  0  0  0  0  0  0  0  0  0  0  0
   -0.8385   -2.6905   -0.0000 H   0  0  0  0  0  0  0  0  0  0  0  0
   -1.2926   -1.9010    0.0000 H   0  0  0  0  0  0  0  0  0  0  0  0
  1  2  1  0  0  0  0
  1 10  1  0  0  0  0
  1 11  1  0  0  0  0
  1 12  1  0  0  0  0
  2  3  1  0  0  0  0
  3  4  1  0  0  0  0
  3  5  1  0  0  0  0
  3  6  1  0  0  0  0
  6  7  1  0  0  0  0
  6  8  1  0  0  0  0
  6  9  1  0  0  0  0
  7 13  1  0  0  0  0
  7 14  1  0  0  0  0
  7 15  1  0  0  0  0
M  END
$$$$
