
 OpenBabel03202621342D

 24 26  0  0  0  0  0  0  0  0999 V2000
    1.4945   -0.9706    0.0000 C   0  0  0  0  0  0  0  0  0  0  0  0
    0.5000   -0.8660    0.0000 C   0  0  0  0  0  0  0  0  0  0  0  0
   -0.3798   -1.8826    0.0000 C   0  0  0  0  0  0  0  0  0  0  0  0
   -1.5565   -1.2554   -0.0000 N   0  0  0  0  0  0  0  0  0  0  0  0
   -2.7292   -1.9255   -0.0000 C   0  0  0  0  0  0  0  0  0  0  0  0
   -2.7295   -3.3385   -0.0000 C   0  0  0  0  0  0  0  0  0  0  0  0
   -3.9103   -4.0441    0.0000 C   0  0  0  0  0  0  0  0  0  0  0  0
   -5.1492   -3.3733    0.0000 C   0  0  0  0  0  0  0  0  0  0  0  0
   -6.3522   -4.1460    0.0000 N   0  3  0  0  0  0  0  0  0  0  0  0
   -7.4338   -3.5653   -0.0000 O   0  0  0  0  0  0  0  0  0  0  0  0
   -6.2108   -5.3831   -0.0000 O   0  5  0  0  0  0  0  0  0  0  0  0
   -5.1792   -1.9508   -0.0000 C   0  0  0  0  0  0  0  0  0  0  0  0
   -6.1610   -1.0381    0.0000 N   0  0  0  0  0  0  0  0  0  0  0  0
   -5.5548    0.2027    0.0000 O   0  0  0  0  0  0  0  0  0  0  0  0
   -4.1912    0.0887   -0.0000 N   0  0  0  0  0  0  0  0  0  0  0  0
   -3.9453   -1.2279   -0.0000 C   0  0  0  0  0  0  0  0  0  0  0  0
   -1.4395    0.0691    0.0000 N   0  0  0  0  0  0  0  0  0  0  0  0
   -0.1576    0.3344    0.0000 N   0  0  0  0  0  0  0  0  0  0  0  0
    1.7679   -2.0408    0.0000 H   0  0  0  0  0  0  0  0  0  0  0  0
    1.9457    0.0354    0.0000 H   0  0  0  0  0  0  0  0  0  0  0  0
    2.5586   -1.0825    0.0000 H   0  0  0  0  0  0  0  0  0  0  0  0
   -0.1925   -2.9403    0.0000 H   0  0  0  0  0  0  0  0  0  0  0  0
   -1.8195   -3.9354    0.0000 H   0  0  0  0  0  0  0  0  0  0  0  0
   -3.8297   -5.1314    0.0000 H   0  0  0  0  0  0  0  0  0  0  0  0
  1  2  1  0  0  0  0
  1 19  1  0  0  0  0
  1 20  1  0  0  0  0
  1 21  1  0  0  0  0
  2 18  1  0  0  0  0
  2  3  2  0  0  0  0
  3  4  1  0  0  0  0
  3 22  1  0  0  0  0
  4  5  1  0  0  0  0
  4 17  1  0  0  0  0
  5 16  1  0  0  0  0
  5  6  2  0  0  0  0
  6  7  1  0  0  0  0
  6 23  1  0  0  0  0
  7  8  2  0  0  0  0
  7 24  1  0  0  0  0
  8  9  1  0  0  0  0
  8 12  1  0  0  0  0
  9 10  2  0  0  0  0
  9 11  1  0  0  0  0
 12 16  1  0  0  0  0
 12 13  2  0  0  0  0
 13 14  1  0  0  0  0
 14 15  1  0  0  0  0
 15 16  2  0  0  0  0
 17 18  2  0  0  0  0
M  CHG  2   9   1  11  -1
M  END
$$$$
