
 OpenBabel03202621352D

 26 27  0  0  0  0  0  0  0  0999 V2000
    4.3581   -1.7788    0.0000 C   0  0  0  0  0  0  0  0  0  0  0  0
    3.4071   -2.0878    0.0000 N   0  0  0  0  0  0  0  0  0  0  0  0
    3.2302   -3.4508    0.0836 N   0  0  0  0  0  0  0  0  0  0  0  0
    2.0179   -3.7462   -0.3299 N   0  0  0  0  0  0  0  0  0  0  0  0
    1.3406   -2.5788   -0.4346 C   0  0  0  0  0  0  0  0  0  0  0  0
    2.1217   -1.5179   -0.0189 C   0  0  0  0  0  0  0  0  0  0  0  0
    1.8317   -0.1261    0.2847 C   0  0  0  0  0  0  0  0  0  0  0  0
    2.7561    0.5991    0.6749 O   0  0  0  0  0  0  0  0  0  0  0  0
    0.4984    0.5645    0.1677 C   0  0  0  0  0  0  0  0  0  0  0  0
   -0.8264    0.2919    0.0323 C   0  0  0  0  0  0  0  0  0  0  0  0
   -1.4190   -1.0890   -0.0216 C   0  0  0  0  0  0  0  0  0  0  0  0
   -2.9020   -1.1498    0.3148 C   0  0  0  0  0  0  0  0  0  0  0  0
   -3.6711   -0.2582   -0.4833 O   0  0  0  0  0  0  0  0  0  0  0  0
   -3.1388    1.0041   -0.4205 C   0  0  0  0  0  0  0  0  0  0  0  0
   -1.8703    1.3603   -0.1292 C   0  0  0  0  0  0  0  0  0  0  0  0
   -1.4189    2.5324   -0.0115 O   0  5  0  0  0  0  0  0  0  0  0  0
    4.8107   -2.3217   -0.8720 H   0  0  0  0  0  0  0  0  0  0  0  0
    4.3071   -0.7306   -0.3691 H   0  0  0  0  0  0  0  0  0  0  0  0
    5.3757   -1.4482    0.0000 H   0  0  0  0  0  0  0  0  0  0  0  0
    0.3209   -2.6154   -0.7578 H   0  0  0  0  0  0  0  0  0  0  0  0
    0.7299    1.6324    0.2159 H   0  0  0  0  0  0  0  0  0  0  0  0
   -1.3079   -1.4526   -1.0501 H   0  0  0  0  0  0  0  0  0  0  0  0
   -0.9115   -1.7502    0.6859 H   0  0  0  0  0  0  0  0  0  0  0  0
   -3.2732   -2.1620    0.1146 H   0  0  0  0  0  0  0  0  0  0  0  0
   -3.0886   -0.9450    1.3758 H   0  0  0  0  0  0  0  0  0  0  0  0
   -3.8983    1.7435   -0.6460 H   0  0  0  0  0  0  0  0  0  0  0  0
  1  2  1  0  0  0  0
  1 17  1  0  0  0  0
  1 18  1  0  0  0  0
  1 19  1  0  0  0  0
  2  6  1  0  0  0  0
  2  3  1  0  0  0  0
  3  4  2  0  0  0  0
  4  5  1  0  0  0  0
  5  6  2  0  0  0  0
  5 20  1  0  0  0  0
  6  7  1  0  0  0  0
  7  8  2  0  0  0  0
  7  9  1  0  0  0  0
  9 10  2  3  0  0  0
  9 21  1  0  0  0  0
 10 15  1  0  0  0  0
 10 11  1  0  0  0  0
 11 12  1  0  0  0  0
 11 22  1  0  0  0  0
 11 23  1  0  0  0  0
 12 13  1  0  0  0  0
 12 24  1  0  0  0  0
 12 25  1  0  0  0  0
 13 14  1  0  0  0  0
 14 15  2  0  0  0  0
 14 26  1  0  0  0  0
 15 16  1  0  0  0  0
M  CHG  1  16  -1
M  END
$$$$
