
 OpenBabel03202621322D

 32 32  0  0  1  0  0  0  0  0999 V2000
    2.2321    2.5981    0.0000 C   0  0  0  0  0  0  0  0  0  0  0  0
    1.7321    1.7321    0.0000 O   0  0  0  0  0  0  0  0  0  0  0  0
    2.2321    0.8660    0.0000 C   0  0  0  0  0  0  0  0  0  0  0  0
    3.5086    1.2130    0.0000 O   0  0  0  0  0  0  0  0  0  0  0  0
    1.7321    0.0000    0.0000 C   0  0  2  0  0  0  0  0  0  0  0  0
    2.5981   -0.5000    0.0000 C   0  0  0  0  0  0  0  0  0  0  0  0
    1.2321   -0.8660    0.0000 N   0  0  0  0  0  0  0  0  0  0  0  0
    2.5513   -2.2714   -0.0029 C   0  0  0  0  0  0  0  0  0  0  0  0
    4.5205   -2.9197   -0.0015 S   0  0  0  0  0  0  0  0  0  0  0  0
    1.2321   -2.5981    0.0000 S   0  0  0  0  0  0  0  0  0  0  0  0
    1.7321   -3.4641    0.0000 C   0  0  0  0  0  0  0  0  0  0  0  0
   -0.0550    0.5334   -0.0001 C   0  0  0  0  0  0  0  0  0  0  0  0
   -0.4247    1.9111   -0.0000 C   0  0  0  0  0  0  0  0  0  0  0  0
   -1.5734    2.5854   -0.0000 C   0  0  0  0  0  0  0  0  0  0  0  0
   -2.6275    1.7787   -0.0000 C   0  0  0  0  0  0  0  0  0  0  0  0
   -2.4644    0.3814    0.0000 C   0  0  0  0  0  0  0  0  0  0  0  0
   -1.2228   -0.2527   -0.0000 C   0  0  0  0  0  0  0  0  0  0  0  0
    3.3581    2.8060   -0.0000 H   0  0  0  0  0  0  0  0  0  0  0  0
    1.5718    3.4827    0.0000 H   0  0  0  0  0  0  0  0  0  0  0  0
    2.7671    3.5247    0.0000 H   0  0  0  0  0  0  0  0  0  0  0  0
    3.4062   -1.1821    0.0092 H   0  0  0  0  0  0  0  0  0  0  0  0
    3.7672   -0.2079   -0.0005 H   0  0  0  0  0  0  0  0  0  0  0  0
    3.5247   -1.0350    0.0000 H   0  0  0  0  0  0  0  0  0  0  0  0
    0.3472   -1.3348   -0.0000 H   0  0  0  0  0  0  0  0  0  0  0  0
    0.8903   -4.1904    0.0000 H   0  0  0  0  0  0  0  0  0  0  0  0
    2.7603   -3.9643    0.0001 H   0  0  0  0  0  0  0  0  0  0  0  0
    2.2671   -4.3907    0.0000 H   0  0  0  0  0  0  0  0  0  0  0  0
    0.2013    2.7443    0.0000 H   0  0  0  0  0  0  0  0  0  0  0  0
   -1.4634    3.6747    0.0000 H   0  0  0  0  0  0  0  0  0  0  0  0
   -3.5719    2.2655    0.0000 H   0  0  0  0  0  0  0  0  0  0  0  0
   -3.3174   -0.2657    0.0000 H   0  0  0  0  0  0  0  0  0  0  0  0
   -1.2945   -1.3440    0.0000 H   0  0  0  0  0  0  0  0  0  0  0  0
  1  2  1  0  0  0  0
  1 18  1  0  0  0  0
  1 19  1  0  0  0  0
  1 20  1  0  0  0  0
  2  3  1  0  0  0  0
  3  4  2  0  0  0  0
  5  3  1  6  0  0  0
  5  6  1  0  0  0  0
  5  7  1  0  0  0  0
  5 12  1  0  0  0  0
  6 21  1  0  0  0  0
  6 22  1  0  0  0  0
  6 23  1  0  0  0  0
  7  8  1  0  0  0  0
  7 24  1  0  0  0  0
  8  9  2  0  0  0  0
  8 10  1  0  0  0  0
 10 11  1  0  0  0  0
 11 25  1  0  0  0  0
 11 26  1  0  0  0  0
 11 27  1  0  0  0  0
 12 17  2  0  0  0  0
 12 13  1  0  0  0  0
 13 14  2  0  0  0  0
 13 28  1  0  0  0  0
 14 15  1  0  0  0  0
 14 29  1  0  0  0  0
 15 16  2  0  0  0  0
 15 30  1  0  0  0  0
 16 17  1  0  0  0  0
 16 31  1  0  0  0  0
 17 32  1  0  0  0  0
M  END
$$$$
