
 OpenBabel03202621282D

 19 20  0  0  0  0  0  0  0  0999 V2000
   -0.2788   -1.7601    0.0000 C   0  0  0  0  0  0  0  0  0  0  0  0
   -0.5878   -0.8090    0.0000 C   0  0  0  0  0  0  0  0  0  0  0  0
   -1.5388   -0.5000    0.0000 C   0  0  0  0  0  0  0  0  0  0  0  0
   -1.5388    0.5000    0.0000 N   0  0  0  0  0  0  0  0  0  0  0  0
   -2.3479    1.0878    0.0000 C   0  0  0  0  0  0  0  0  0  0  0  0
   -3.2614    0.6810    0.0000 C   0  0  0  0  0  0  0  0  0  0  0  0
   -4.0704    1.2688    0.0000 C   0  0  0  0  0  0  0  0  0  0  0  0
   -4.9840    0.8621    0.0000 C   0  0  0  0  0  0  0  0  0  0  0  0
   -5.7930    1.4499    0.0000 O   0  0  0  0  0  0  0  0  0  0  0  0
   -5.0885   -0.1324    0.0000 O   0  0  0  0  0  0  0  0  0  0  0  0
   -6.0020   -0.5392    0.0000 N   0  0  0  0  0  0  0  0  0  0  0  0
   -6.2100   -1.5173    0.0000 C   0  0  0  0  0  0  0  0  0  0  0  0
   -5.5408   -2.2605    0.0000 O   0  0  0  0  0  0  0  0  0  0  0  0
   -7.2045   -1.6218    0.0000 C   0  0  0  0  0  0  0  0  0  0  0  0
   -7.6112   -0.7083    0.0000 C   0  0  0  0  0  0  0  0  0  0  0  0
   -6.8681   -0.0392    0.0000 C   0  0  0  0  0  0  0  0  0  0  0  0
   -6.9726    0.9554    0.0000 O   0  0  0  0  0  0  0  0  0  0  0  0
   -0.5878    0.8090    0.0000 N   0  0  0  0  0  0  0  0  0  0  0  0
   -0.0000   -0.0000    0.0000 N   0  0  0  0  0  0  0  0  0  0  0  0
  1  2  1  0  0  0  0
  2 19  1  0  0  0  0
  2  3  2  0  0  0  0
  3  4  1  0  0  0  0
  4  5  1  0  0  0  0
  4 18  1  0  0  0  0
  5  6  1  0  0  0  0
  6  7  1  0  0  0  0
  7  8  1  0  0  0  0
  8  9  2  0  0  0  0
  8 10  1  0  0  0  0
 10 11  1  0  0  0  0
 11 16  1  0  0  0  0
 11 12  1  0  0  0  0
 12 13  2  0  0  0  0
 12 14  1  0  0  0  0
 14 15  1  0  0  0  0
 15 16  1  0  0  0  0
 16 17  2  0  0  0  0
 18 19  2  0  0  0  0
M  END
$$$$
