
 OpenBabel03202621342D

 46 45  0  0  0  0  0  0  0  0999 V2000
   12.1244    0.0000    0.0000 C   0  0  0  0  0  0  0  0  0  0  0  0
   12.1244    1.0000    0.0000 S   0  0  0  0  0  0  0  0  0  0  0  0
   11.9878    2.6372   -0.1718 C   0  0  0  0  0  0  0  0  0  0  0  0
   12.6081    3.4509    0.4912 O   0  0  0  0  0  0  0  0  0  0  0  0
   10.9601    2.9370   -1.0200 N   0  0  0  0  0  0  0  0  0  0  0  0
    9.7032    3.0731   -0.3271 C   0  0  0  0  0  0  0  0  0  0  0  0
    9.1651    1.6947    0.0630 C   0  0  0  0  0  0  0  0  0  0  0  0
    7.8627    1.8324    0.7565 C   0  0  0  0  0  0  0  0  0  0  0  0
    6.9514    0.6843    0.3750 C   0  0  0  0  0  0  0  0  0  0  0  0
    5.6936    1.4235    0.0726 C   0  0  0  0  0  0  0  0  0  0  0  0
    4.5065    0.5641   -0.1476 C   0  0  0  0  0  0  0  0  0  0  0  0
    3.3899    1.5800   -0.1571 C   0  0  0  0  0  0  0  0  0  0  0  0
    2.1085    0.8387   -0.1802 C   0  0  0  0  0  0  0  0  0  0  0  0
    0.9723    1.8183   -0.0276 C   0  0  0  0  0  0  0  0  0  0  0  0
   -0.2426    0.9381    0.0184 C   0  0  0  0  0  0  0  0  0  0  0  0
   -1.5426    1.6901    0.0592 C   0  0  0  0  0  0  0  0  0  0  0  0
   -2.6767    0.7131   -0.0518 C   0  0  0  0  0  0  0  0  0  0  0  0
   -3.8187    1.0132   -0.2969 O   0  0  0  0  0  0  0  0  0  0  0  0
   -2.3425   -0.5670    0.1593 O   0  0  0  0  0  0  0  0  0  0  0  0
   11.2847   -0.1824   -0.6969 H   0  0  0  0  0  0  0  0  0  0  0  0
   13.0684   -0.1734   -0.5509 H   0  0  0  0  0  0  0  0  0  0  0  0
   12.1244   -1.0700    0.0000 H   0  0  0  0  0  0  0  0  0  0  0  0
   10.8883    2.2392   -1.7468 H   0  0  0  0  0  0  0  0  0  0  0  0
    9.8376    3.6871    0.5727 H   0  0  0  0  0  0  0  0  0  0  0  0
    9.0121    3.5781   -1.0071 H   0  0  0  0  0  0  0  0  0  0  0  0
    9.7796    1.1648    0.7906 H   0  0  0  0  0  0  0  0  0  0  0  0
    9.1092    1.0685   -0.8381 H   0  0  0  0  0  0  0  0  0  0  0  0
    7.9870    1.8693    1.8440 H   0  0  0  0  0  0  0  0  0  0  0  0
    7.4421    2.8070    0.4761 H   0  0  0  0  0  0  0  0  0  0  0  0
    7.2680    0.1132   -0.5071 H   0  0  0  0  0  0  0  0  0  0  0  0
    6.8389   -0.0246    1.2024 H   0  0  0  0  0  0  0  0  0  0  0  0
    5.8418    2.0601   -0.8119 H   0  0  0  0  0  0  0  0  0  0  0  0
    5.4916    2.0891    0.9250 H   0  0  0  0  0  0  0  0  0  0  0  0
    4.5678    0.0140   -1.0932 H   0  0  0  0  0  0  0  0  0  0  0  0
    4.3899   -0.1625    0.6652 H   0  0  0  0  0  0  0  0  0  0  0  0
    3.4796    2.2538   -1.0182 H   0  0  0  0  0  0  0  0  0  0  0  0
    3.4272    2.2072    0.7455 H   0  0  0  0  0  0  0  0  0  0  0  0
    2.0926    0.1126    0.6426 H   0  0  0  0  0  0  0  0  0  0  0  0
    2.0265    0.2776   -1.1176 H   0  0  0  0  0  0  0  0  0  0  0  0
    0.9465    2.5211   -0.8680 H   0  0  0  0  0  0  0  0  0  0  0  0
    1.0726    2.4055    0.8957 H   0  0  0  0  0  0  0  0  0  0  0  0
   -0.1592    0.2843    0.9034 H   0  0  0  0  0  0  0  0  0  0  0  0
   -0.2273    0.2817   -0.8634 H   0  0  0  0  0  0  0  0  0  0  0  0
   -1.5860    2.3884   -0.7779 H   0  0  0  0  0  0  0  0  0  0  0  0
   -1.6272    2.2519    1.0030 H   0  0  0  0  0  0  0  0  0  0  0  0
   -3.1551   -1.0725    0.0069 H   0  0  0  0  0  0  0  0  0  0  0  0
  1  2  1  0  0  0  0
  1 20  1  0  0  0  0
  1 21  1  0  0  0  0
  1 22  1  0  0  0  0
  2  3  1  0  0  0  0
  3  4  2  0  0  0  0
  3  5  1  0  0  0  0
  5  6  1  0  0  0  0
  5 23  1  0  0  0  0
  6  7  1  0  0  0  0
  6 24  1  0  0  0  0
  6 25  1  0  0  0  0
  7  8  1  0  0  0  0
  7 26  1  0  0  0  0
  7 27  1  0  0  0  0
  8  9  1  0  0  0  0
  8 28  1  0  0  0  0
  8 29  1  0  0  0  0
  9 10  1  0  0  0  0
  9 30  1  0  0  0  0
  9 31  1  0  0  0  0
 10 11  1  0  0  0  0
 10 32  1  0  0  0  0
 10 33  1  0  0  0  0
 11 12  1  0  0  0  0
 11 34  1  0  0  0  0
 11 35  1  0  0  0  0
 12 13  1  0  0  0  0
 12 36  1  0  0  0  0
 12 37  1  0  0  0  0
 13 14  1  0  0  0  0
 13 38  1  0  0  0  0
 13 39  1  0  0  0  0
 14 15  1  0  0  0  0
 14 40  1  0  0  0  0
 14 41  1  0  0  0  0
 15 16  1  0  0  0  0
 15 42  1  0  0  0  0
 15 43  1  0  0  0  0
 16 17  1  0  0  0  0
 16 44  1  0  0  0  0
 16 45  1  0  0  0  0
 17 18  2  0  0  0  0
 17 19  1  0  0  0  0
 19 46  1  0  0  0  0
M  END
$$$$
