
 OpenBabel03202621312D

 24 24  0  0  1  0  0  0  0  0999 V2000
   -2.6798   -1.5840    0.0540 N   0  0  0  0  0  0  0  0  0  0  0  0
   -1.3257   -2.1165    0.1253 C   0  0  0  0  0  0  0  0  0  0  0  0
   -0.3134   -1.0805   -0.3392 C   0  0  2  0  0  0  0  0  0  0  0  0
   -0.4130    0.3862    0.1706 C   0  0  0  0  0  0  0  0  0  0  0  0
    1.1265    0.4190    0.1157 C   0  0  0  0  0  0  0  0  0  0  0  0
    1.0894   -1.1172    0.3647 C   0  0  2  0  0  0  0  0  0  0  0  0
    2.1064   -2.0253   -0.3040 C   0  0  0  0  0  0  0  0  0  0  0  0
    3.3986   -1.8177    0.3068 N   0  0  0  0  0  0  0  0  0  0  0  0
    4.2103   -0.7641    0.0198 C   0  0  0  0  0  0  0  0  0  0  0  0
    5.4142   -0.7706    0.2526 O   0  0  0  0  0  0  0  0  0  0  0  0
   -2.8853   -1.2578   -0.8887 H   0  0  0  0  0  0  0  0  0  0  0  0
   -3.3489   -2.3259    0.2560 H   0  0  0  0  0  0  0  0  0  0  0  0
   -1.1251   -2.4286    1.1555 H   0  0  0  0  0  0  0  0  0  0  0  0
   -1.2508   -3.0090   -0.5057 H   0  0  0  0  0  0  0  0  0  0  0  0
   -0.2363   -1.1045   -1.4384 H   0  0  0  0  0  0  0  0  0  0  0  0
   -0.8216    0.4950    1.1820 H   0  0  0  0  0  0  0  0  0  0  0  0
   -0.9192    1.0862   -0.4982 H   0  0  0  0  0  0  0  0  0  0  0  0
    1.6142    1.0190    0.8879 H   0  0  0  0  0  0  0  0  0  0  0  0
    1.5153    0.7128   -0.8668 H   0  0  0  0  0  0  0  0  0  0  0  0
    1.0122   -1.3447    1.4398 H   0  0  0  0  0  0  0  0  0  0  0  0
    1.8361   -3.0748   -0.1391 H   0  0  0  0  0  0  0  0  0  0  0  0
    2.1844   -1.8420   -1.3796 H   0  0  0  0  0  0  0  0  0  0  0  0
    3.9228   -2.6336    0.6085 H   0  0  0  0  0  0  0  0  0  0  0  0
    3.6990    0.1049   -0.4245 H   0  0  0  0  0  0  0  0  0  0  0  0
  1  2  1  0  0  0  0
  1 11  1  0  0  0  0
  1 12  1  0  0  0  0
  2 13  1  0  0  0  0
  2 14  1  0  0  0  0
  3  2  1  0  0  0  0
  3  4  1  0  0  0  0
  3  6  1  0  0  0  0
  3 15  1  1  0  0  0
  4  5  1  0  0  0  0
  4 16  1  0  0  0  0
  4 17  1  0  0  0  0
  5  6  1  0  0  0  0
  5 18  1  0  0  0  0
  5 19  1  0  0  0  0
  6  7  1  0  0  0  0
  6 20  1  1  0  0  0
  7  8  1  0  0  0  0
  7 21  1  0  0  0  0
  7 22  1  0  0  0  0
  8  9  1  0  0  0  0
  8 23  1  0  0  0  0
  9 10  2  0  0  0  0
  9 24  1  0  0  0  0
M  END
$$$$
