
 OpenBabel03202621282D

 16 17  0  0  0  0  0  0  0  0999 V2000
    0.1522   -2.6723    0.0000 C   0  0  0  0  0  0  0  0  0  0  0  0
    0.4612   -1.7213    0.0000 O   0  0  0  0  0  0  0  0  0  0  0  0
   -0.2079   -0.9781    0.0000 C   0  0  0  0  0  0  0  0  0  0  0  0
   -1.2024   -1.0827    0.0000 C   0  0  0  0  0  0  0  0  0  0  0  0
   -1.6092   -0.1691    0.0000 C   0  0  0  0  0  0  0  0  0  0  0  0
   -2.5873    0.0388    0.0000 N   0  0  0  0  0  0  0  0  0  0  0  0
   -3.3305   -0.6303    0.0000 C   0  0  0  0  0  0  0  0  0  0  0  0
   -4.1965   -0.1303    0.0000 C   0  0  0  0  0  0  0  0  0  0  0  0
   -5.1100   -0.5371    0.0000 C   0  0  0  0  0  0  0  0  0  0  0  0
   -3.9886    0.8478    0.0000 N   0  0  0  0  0  0  0  0  0  0  0  0
   -2.9941    0.9523    0.0000 N   0  0  0  0  0  0  0  0  0  0  0  0
   -0.8660    0.5000    0.0000 S   0  0  0  0  0  0  0  0  0  0  0  0
    0.0000    0.0000    0.0000 C   0  0  0  0  0  0  0  0  0  0  0  0
    0.9135    0.4067    0.0000 C   0  0  0  0  0  0  0  0  0  0  0  0
    1.7226   -0.1810    0.0000 O   0  0  0  0  0  0  0  0  0  0  0  0
    1.0181    1.4013    0.0000 O   0  0  0  0  0  0  0  0  0  0  0  0
  1  2  1  0  0  0  0
  2  3  1  0  0  0  0
  3 13  2  0  0  0  0
  3  4  1  0  0  0  0
  4  5  2  0  0  0  0
  5  6  1  0  0  0  0
  5 12  1  0  0  0  0
  6 11  1  0  0  0  0
  6  7  1  0  0  0  0
  7  8  2  0  0  0  0
  8  9  1  0  0  0  0
  8 10  1  0  0  0  0
 10 11  2  0  0  0  0
 12 13  1  0  0  0  0
 13 14  1  0  0  0  0
 14 15  2  0  0  0  0
 14 16  1  0  0  0  0
M  END
$$$$
