
 OpenBabel03202621292D

 21 22  0  0  1  0  0  0  0  0999 V2000
   -2.9186   -0.9299    0.2157 O   0  0  0  0  0  0  0  0  0  0  0  0
   -2.3325   -1.8799   -0.2933 C   0  0  0  0  0  0  0  0  0  0  0  0
   -1.0401   -1.9109   -0.7373 O   0  0  0  0  0  0  0  0  0  0  0  0
    0.0000   -1.0000    0.0000 C   0  0  1  0  0  0  0  0  0  0  0  0
   -0.3353    0.3880   -0.5516 C   0  0  0  0  0  0  0  0  0  0  0  0
    1.0000    0.0000    0.0000 C   0  0  0  0  0  0  0  0  0  0  0  0
    1.0000   -1.0000    0.0000 C   0  0  0  0  0  0  0  0  0  0  0  0
    2.0000   -1.0000    0.0000 C   0  0  0  0  0  0  0  0  0  0  0  0
    2.2915   -2.2759    0.6312 N   0  0  0  0  0  0  0  0  0  0  0  0
    1.0000   -2.0000    0.0000 C   0  0  0  0  0  0  0  0  0  0  0  0
   -2.7801   -2.8637   -0.4460 H   0  0  0  0  0  0  0  0  0  0  0  0
   -0.4640   -0.9921    1.0734 H   0  0  0  0  0  0  0  0  0  0  0  0
   -1.2562    0.6176    0.0168 H   0  0  0  0  0  0  0  0  0  0  0  0
   -0.1023    1.4680   -0.6023 H   0  0  0  0  0  0  0  0  0  0  0  0
    1.0875    0.5923    0.9957 H   0  0  0  0  0  0  0  0  0  0  0  0
    1.6396    0.7366   -0.6538 H   0  0  0  0  0  0  0  0  0  0  0  0
    2.7868   -0.3525    0.5594 H   0  0  0  0  0  0  0  0  0  0  0  0
    2.5742   -0.9864   -1.0091 H   0  0  0  0  0  0  0  0  0  0  0  0
    2.9091   -2.8856    0.0877 H   0  0  0  0  0  0  0  0  0  0  0  0
    0.3932   -2.7753    0.6167 H   0  0  0  0  0  0  0  0  0  0  0  0
    1.0074   -2.5961   -0.9932 H   0  0  0  0  0  0  0  0  0  0  0  0
  1  2  2  0  0  0  0
  2  3  1  0  0  0  0
  2 11  1  0  0  0  0
  4  3  1  0  0  0  0
  4  5  1  0  0  0  0
  4  7  1  0  0  0  0
  4 12  1  6  0  0  0
  5  6  1  0  0  0  0
  5 13  1  0  0  0  0
  5 14  1  0  0  0  0
  6  7  1  0  0  0  0
  6 15  1  0  0  0  0
  6 16  1  0  0  0  0
  7 10  1  0  0  0  0
  7  8  1  0  0  0  0
  8  9  1  0  0  0  0
  8 17  1  0  0  0  0
  8 18  1  0  0  0  0
  9 10  1  0  0  0  0
  9 19  1  0  0  0  0
 10 20  1  0  0  0  0
 10 21  1  0  0  0  0
M  END
$$$$
