
 OpenBabel03202621402D

 25 26  0  0  0  0  0  0  0  0999 V2000
    1.4945   -0.9706    0.0000 C   0  0  0  0  0  0  0  0  0  0  0  0
    0.5000   -0.8660    0.0000 C   0  0  0  0  0  0  0  0  0  0  0  0
   -0.4296   -1.8038   -0.4384 C   0  0  0  0  0  0  0  0  0  0  0  0
   -1.6582   -1.2221   -0.3187 N   0  0  0  0  0  0  0  0  0  0  0  0
   -2.9559   -1.8595   -0.5266 C   0  0  0  0  0  0  0  0  0  0  0  0
   -2.9677   -3.2525    0.1228 C   0  0  0  0  0  0  0  0  0  0  0  0
   -4.3302   -3.9289    0.0959 C   0  0  0  0  0  0  0  0  0  0  0  0
   -5.4192   -3.0201    0.0241 O   0  0  0  0  0  0  0  0  0  0  0  0
   -5.1689   -1.8091    0.7212 C   0  0  0  0  0  0  0  0  0  0  0  0
   -4.1500   -0.9985   -0.0589 C   0  0  0  0  0  0  0  0  0  0  0  0
   -1.5266    0.0528    0.0599 N   0  0  0  0  0  0  0  0  0  0  0  0
   -0.2388    0.2780    0.2733 N   0  0  0  0  0  0  0  0  0  0  0  0
    1.5963   -1.7251    0.8197 H   0  0  0  0  0  0  0  0  0  0  0  0
    1.8217    0.0046    0.4375 H   0  0  0  0  0  0  0  0  0  0  0  0
    2.5586   -1.0825    0.0000 H   0  0  0  0  0  0  0  0  0  0  0  0
   -0.3007   -2.8140   -0.7937 H   0  0  0  0  0  0  0  0  0  0  0  0
   -3.0329   -1.9842   -1.6166 H   0  0  0  0  0  0  0  0  0  0  0  0
   -2.6439   -3.1583    1.1690 H   0  0  0  0  0  0  0  0  0  0  0  0
   -2.2382   -3.9236   -0.3475 H   0  0  0  0  0  0  0  0  0  0  0  0
   -4.4510   -4.5575    0.9861 H   0  0  0  0  0  0  0  0  0  0  0  0
   -4.4052   -4.5913   -0.7732 H   0  0  0  0  0  0  0  0  0  0  0  0
   -6.1089   -1.2485    0.7974 H   0  0  0  0  0  0  0  0  0  0  0  0
   -4.8274   -2.0194    1.7420 H   0  0  0  0  0  0  0  0  0  0  0  0
   -3.8650   -0.1349    0.5487 H   0  0  0  0  0  0  0  0  0  0  0  0
   -4.6349   -0.5923   -0.9565 H   0  0  0  0  0  0  0  0  0  0  0  0
  1  2  1  0  0  0  0
  1 13  1  0  0  0  0
  1 14  1  0  0  0  0
  1 15  1  0  0  0  0
  2 12  1  0  0  0  0
  2  3  2  0  0  0  0
  3  4  1  0  0  0  0
  3 16  1  0  0  0  0
  4  5  1  0  0  0  0
  4 11  1  0  0  0  0
  5 10  1  0  0  0  0
  5  6  1  0  0  0  0
  5 17  1  0  0  0  0
  6  7  1  0  0  0  0
  6 18  1  0  0  0  0
  6 19  1  0  0  0  0
  7  8  1  0  0  0  0
  7 20  1  0  0  0  0
  7 21  1  0  0  0  0
  8  9  1  0  0  0  0
  9 10  1  0  0  0  0
  9 22  1  0  0  0  0
  9 23  1  0  0  0  0
 10 24  1  0  0  0  0
 10 25  1  0  0  0  0
 11 12  2  0  0  0  0
M  END
$$$$
