
 OpenBabel03202621312D

 16 15  0  0  0  0  0  0  0  0999 V2000
    2.5981    0.5000    0.0000 C   0  0  0  0  0  0  0  0  0  0  0  0
    1.7321    1.0000    0.0000 C   0  0  0  0  0  0  0  0  0  0  0  0
    0.8163    1.7633    0.0000 C   0  0  0  0  0  0  0  0  0  0  0  0
   -0.4146    2.4560    0.0000 C   0  0  0  0  0  0  0  0  0  0  0  0
   -0.3860    3.6829   -0.0000 O   0  0  0  0  0  0  0  0  0  0  0  0
   -1.5207    1.6427    0.0000 N   0  0  0  0  0  0  0  0  0  0  0  0
   -2.7508    2.2303    0.0000 C   0  0  0  0  0  0  0  0  0  0  0  0
   -2.9963    3.4961    0.0000 N   0  0  0  0  0  0  0  0  0  0  0  0
   -1.4619    0.2324   -0.0000 C   0  0  0  0  0  0  0  0  0  0  0  0
   -0.5195   -0.5554    0.0000 O   0  0  0  0  0  0  0  0  0  0  0  0
    2.3279   -0.5612   -0.0000 H   0  0  0  0  0  0  0  0  0  0  0  0
    3.3874    1.2608   -0.0000 H   0  0  0  0  0  0  0  0  0  0  0  0
    3.5247   -0.0350    0.0000 H   0  0  0  0  0  0  0  0  0  0  0  0
   -3.5991    1.5307    0.0000 H   0  0  0  0  0  0  0  0  0  0  0  0
   -2.1134    4.0458    0.0000 H   0  0  0  0  0  0  0  0  0  0  0  0
   -2.4630   -0.2176   -0.0000 H   0  0  0  0  0  0  0  0  0  0  0  0
  1  2  1  0  0  0  0
  1 11  1  0  0  0  0
  1 12  1  0  0  0  0
  1 13  1  0  0  0  0
  2  3  3  0  0  0  0
  3  4  1  0  0  0  0
  4  5  2  0  0  0  0
  4  6  1  0  0  0  0
  6  7  1  0  0  0  0
  6  9  1  0  0  0  0
  7  8  2  0  0  0  0
  7 14  1  0  0  0  0
  8 15  1  0  0  0  0
  9 10  2  0  0  0  0
  9 16  1  0  0  0  0
M  END
$$$$
