
 OpenBabel03202621282D

 18 18  0  0  1  0  0  0  0  0999 V2000
    4.2569    1.3420    0.0000 C   0  0  0  0  0  0  0  0  0  0  0  0
    3.2623    1.4465    0.0000 O   0  0  0  0  0  0  0  0  0  0  0  0
    2.6745    0.6375    0.0000 C   0  0  0  0  0  0  0  0  0  0  0  0
    3.0813   -0.2761    0.0000 O   0  0  0  0  0  0  0  0  0  0  0  0
    1.6800    0.7420    0.0000 C   0  0  3  0  0  0  0  0  0  0  0  0
    1.0922   -0.0670    0.0000 C   0  0  0  0  0  0  0  0  0  0  0  0
    1.4990   -0.9806    0.0000 C   0  0  0  0  0  0  0  0  0  0  0  0
    0.9112   -1.7896    0.0000 N   0  0  0  0  0  0  0  0  0  0  0  0
    1.3179   -2.7031    0.0000 N   0  3  0  0  0  0  0  0  0  0  0  0
    1.7247   -3.6167    0.0000 N   0  5  0  0  0  0  0  0  0  0  0  0
    1.2733    1.6555    0.0000 C   0  0  0  0  0  0  0  0  0  0  0  0
    0.2788    1.7601    0.0000 C   0  0  0  0  0  0  0  0  0  0  0  0
   -0.3090    0.9511    0.0000 N   0  0  0  0  0  0  0  0  0  0  0  0
   -1.3090    0.9511    0.0000 C   0  0  0  0  0  0  0  0  0  0  0  0
   -1.6180   -0.0000    0.0000 C   0  0  0  0  0  0  0  0  0  0  0  0
   -2.5691   -0.3090    0.0000 C   0  0  0  0  0  0  0  0  0  0  0  0
   -0.8090   -0.5878    0.0000 N   0  0  0  0  0  0  0  0  0  0  0  0
   -0.0000   -0.0000    0.0000 N   0  0  0  0  0  0  0  0  0  0  0  0
  1  2  1  0  0  0  0
  2  3  1  0  0  0  0
  3  4  2  0  0  0  0
  3  5  1  0  0  0  0
  5  6  1  0  0  0  0
  5 11  1  0  0  0  0
  6  7  1  0  0  0  0
  7  8  1  0  0  0  0
  8  9  2  0  0  0  0
  9 10  2  0  0  0  0
 11 12  1  0  0  0  0
 12 13  1  0  0  0  0
 13 18  1  0  0  0  0
 13 14  1  0  0  0  0
 14 15  2  0  0  0  0
 15 16  1  0  0  0  0
 15 17  1  0  0  0  0
 17 18  2  0  0  0  0
M  CHG  2   9   1  10  -1
M  END
$$$$
