
 OpenBabel03202621332D

 26 25  0  0  0  0  0  0  0  0999 V2000
    6.9282    0.0000    0.0000 C   0  0  0  0  0  0  0  0  0  0  0  0
    6.9282    1.0000    0.0000 C   0  0  0  0  0  0  0  0  0  0  0  0
    5.5211    1.6608   -0.2148 C   0  0  0  0  0  0  0  0  0  0  0  0
    4.3479    0.7089    0.0409 C   0  0  0  0  0  0  0  0  0  0  0  0
    3.1038    1.3763   -0.2034 O   0  0  0  0  0  0  0  0  0  0  0  0
    1.9548    0.6494   -0.2716 C   0  0  0  0  0  0  0  0  0  0  0  0
    0.9446    1.1326   -0.7748 O   0  0  0  0  0  0  0  0  0  0  0  0
    1.9979   -0.7514    0.3127 C   0  0  0  0  0  0  0  0  0  0  0  0
    0.7384   -1.5531    0.0045 C   0  0  0  0  0  0  0  0  0  0  0  0
   -0.6194   -1.1715    1.1476 S   0  0  0  0  0  0  0  0  0  0  0  0
   -1.9317   -1.9195    0.2522 C   0  0  0  0  0  0  0  0  0  0  0  0
   -3.0424   -2.0630    0.7450 O   0  0  0  0  0  0  0  0  0  0  0  0
    6.8173   -0.1838   -1.0983 H   0  0  0  0  0  0  0  0  0  0  0  0
    8.0024   -0.1819    0.2547 H   0  0  0  0  0  0  0  0  0  0  0  0
    6.9282   -1.0700    0.0000 H   0  0  0  0  0  0  0  0  0  0  0  0
    7.6027    1.5590   -0.6775 H   0  0  0  0  0  0  0  0  0  0  0  0
    7.2211    1.4379    0.9728 H   0  0  0  0  0  0  0  0  0  0  0  0
    5.4487    2.0421   -1.2425 H   0  0  0  0  0  0  0  0  0  0  0  0
    5.4227    2.5465    0.4276 H   0  0  0  0  0  0  0  0  0  0  0  0
    4.3716    0.3501    1.0753 H   0  0  0  0  0  0  0  0  0  0  0  0
    4.4330   -0.1298   -0.6582 H   0  0  0  0  0  0  0  0  0  0  0  0
    2.8153   -1.3026   -0.1608 H   0  0  0  0  0  0  0  0  0  0  0  0
    2.1883   -0.6943    1.3896 H   0  0  0  0  0  0  0  0  0  0  0  0
    0.4217   -1.3861   -1.0304 H   0  0  0  0  0  0  0  0  0  0  0  0
    0.9588   -2.6211    0.1138 H   0  0  0  0  0  0  0  0  0  0  0  0
   -1.7123   -2.2658   -0.7703 H   0  0  0  0  0  0  0  0  0  0  0  0
  1  2  1  0  0  0  0
  1 13  1  0  0  0  0
  1 14  1  0  0  0  0
  1 15  1  0  0  0  0
  2  3  1  0  0  0  0
  2 16  1  0  0  0  0
  2 17  1  0  0  0  0
  3  4  1  0  0  0  0
  3 18  1  0  0  0  0
  3 19  1  0  0  0  0
  4  5  1  0  0  0  0
  4 20  1  0  0  0  0
  4 21  1  0  0  0  0
  5  6  1  0  0  0  0
  6  7  2  0  0  0  0
  6  8  1  0  0  0  0
  8  9  1  0  0  0  0
  8 22  1  0  0  0  0
  8 23  1  0  0  0  0
  9 10  1  0  0  0  0
  9 24  1  0  0  0  0
  9 25  1  0  0  0  0
 10 11  1  0  0  0  0
 11 12  2  0  0  0  0
 11 26  1  0  0  0  0
M  END
$$$$
