
 OpenBabel03202621322D

 17 17  0  0  1  0  0  0  0  0999 V2000
   -1.6730   -1.4483    0.0000 C   0  0  0  0  0  0  0  0  0  0  0  0
   -0.7071   -1.7071    0.0000 S   0  0  0  0  0  0  0  0  0  0  0  0
    0.4289   -0.4538   -0.6144 C   0  0  1  0  0  0  0  0  0  0  0  0
    0.3301    0.9295    0.0529 C   0  0  0  0  0  0  0  0  0  0  0  0
    1.8494    0.8879    0.3137 C   0  0  2  0  0  0  0  0  0  0  0  0
    2.6703    1.6603   -0.5811 O   0  0  0  0  0  0  0  0  0  0  0  0
    1.8186   -0.6257    0.0502 C   0  0  0  0  0  0  0  0  0  0  0  0
   -1.7272   -0.9508    0.9883 H   0  0  0  0  0  0  0  0  0  0  0  0
   -2.1195   -2.4549    0.1085 H   0  0  0  0  0  0  0  0  0  0  0  0
   -2.7065   -1.1714    0.0000 H   0  0  0  0  0  0  0  0  0  0  0  0
    0.4898   -0.3943   -1.7074 H   0  0  0  0  0  0  0  0  0  0  0  0
   -0.2604    0.9929    0.9767 H   0  0  0  0  0  0  0  0  0  0  0  0
    0.0011    1.7285   -0.6196 H   0  0  0  0  0  0  0  0  0  0  0  0
    2.1027    1.1381    1.3506 H   0  0  0  0  0  0  0  0  0  0  0  0
    3.5855    1.4631   -0.3107 H   0  0  0  0  0  0  0  0  0  0  0  0
    1.8546   -1.2130    0.9762 H   0  0  0  0  0  0  0  0  0  0  0  0
    2.6000   -1.0006   -0.6189 H   0  0  0  0  0  0  0  0  0  0  0  0
  1  2  1  0  0  0  0
  1  8  1  0  0  0  0
  1  9  1  0  0  0  0
  1 10  1  0  0  0  0
  3  2  1  0  0  0  0
  3  4  1  0  0  0  0
  3  7  1  0  0  0  0
  3 11  1  6  0  0  0
  4  5  1  0  0  0  0
  4 12  1  0  0  0  0
  4 13  1  0  0  0  0
  5  6  1  0  0  0  0
  5  7  1  0  0  0  0
  5 14  1  1  0  0  0
  6 15  1  0  0  0  0
  7 16  1  0  0  0  0
  7 17  1  0  0  0  0
M  END
$$$$
