
 OpenBabel03202621312D

 20 20  0  0  0  0  0  0  0  0999 V2000
   -1.8171   -4.3513    0.0000 N   0  0  0  0  0  0  0  0  0  0  0  0
   -1.1090   -3.4333    0.0000 C   0  0  0  0  0  0  0  0  0  0  0  0
    0.0000   -2.0000    0.0000 C   0  0  0  0  0  0  0  0  0  0  0  0
    0.0000   -1.0000    0.0000 C   0  0  0  0  0  0  0  0  0  0  0  0
   -1.0000   -1.0000    0.0000 C   0  0  0  0  0  0  0  0  0  0  0  0
   -2.2247    0.3092   -0.0000 O   0  0  0  0  0  0  0  0  0  0  0  0
   -3.5811    0.1882   -0.0000 C   0  0  0  0  0  0  0  0  0  0  0  0
   -4.3460    1.1400   -0.0000 O   0  0  0  0  0  0  0  0  0  0  0  0
    0.0000    0.0000    0.0000 C   0  0  0  0  0  0  0  0  0  0  0  0
    1.3451    0.3389    0.0000 O   0  0  0  0  0  0  0  0  0  0  0  0
    1.0000   -1.0000    0.0000 C   0  0  0  0  0  0  0  0  0  0  0  0
    0.2770   -3.1320   -0.0000 H   0  0  0  0  0  0  0  0  0  0  0  0
    0.9706   -2.7358    0.0000 H   0  0  0  0  0  0  0  0  0  0  0  0
   -1.7302   -1.8467   -0.0000 H   0  0  0  0  0  0  0  0  0  0  0  0
   -2.0838   -1.2101    0.0000 H   0  0  0  0  0  0  0  0  0  0  0  0
   -3.9199   -0.8603   -0.0000 H   0  0  0  0  0  0  0  0  0  0  0  0
   -0.6981    0.8910    0.0000 H   0  0  0  0  0  0  0  0  0  0  0  0
    0.1835    1.1376   -0.0000 H   0  0  0  0  0  0  0  0  0  0  0  0
    1.9489   -1.7419   -0.0000 H   0  0  0  0  0  0  0  0  0  0  0  0
    2.1398   -0.8284    0.0000 H   0  0  0  0  0  0  0  0  0  0  0  0
  1  2  3  0  0  0  0
  2  3  1  0  0  0  0
  3  4  1  0  0  0  0
  3 12  1  0  0  0  0
  3 13  1  0  0  0  0
  4 11  1  0  0  0  0
  4  5  1  0  0  0  0
  4  9  1  0  0  0  0
  5  6  1  0  0  0  0
  5 14  1  0  0  0  0
  5 15  1  0  0  0  0
  6  7  1  0  0  0  0
  7  8  2  0  0  0  0
  7 16  1  0  0  0  0
  9 10  1  0  0  0  0
  9 17  1  0  0  0  0
  9 18  1  0  0  0  0
 10 11  1  0  0  0  0
 11 19  1  0  0  0  0
 11 20  1  0  0  0  0
M  END
$$$$
