
 OpenBabel03202621362D

 34 34  0  0  1  0  0  0  0  0999 V2000
    3.6622    0.3393    0.0000 C   0  0  0  0  0  0  0  0  0  0  0  0
    2.9190    1.0084    0.0000 O   0  0  0  0  0  0  0  0  0  0  0  0
    2.3958    1.0397    1.2677 C   0  0  0  0  0  0  0  0  0  0  0  0
    2.8054    1.8010    2.1379 O   0  0  0  0  0  0  0  0  0  0  0  0
    1.3355   -0.0098    1.5110 C   0  0  0  0  0  0  0  0  0  0  0  0
    0.4103   -0.1483    0.3672 C   0  0  0  0  0  0  0  0  0  0  0  0
    0.1044   -1.2539   -0.3944 C   0  0  0  0  0  0  0  0  0  0  0  0
   -0.9653   -0.8386   -1.1320 N   0  0  0  0  0  0  0  0  0  0  0  0
   -2.0250   -1.6715   -1.6543 C   0  0  0  0  0  0  0  0  0  0  0  0
   -3.2623   -1.6187   -0.7536 C   0  0  0  0  0  0  0  0  0  0  0  0
   -3.0262   -1.9870    0.7258 C   0  0  1  0  0  0  0  0  0  0  0  0
   -4.2981   -1.9689    1.3886 O   0  0  0  0  0  0  0  0  0  0  0  0
   -2.3455   -3.3432    1.0263 C   0  0  0  0  0  0  0  0  0  0  0  0
   -2.8511   -4.7749    0.0000 S   0  0  0  0  0  0  0  0  0  0  0  0
   -3.8457   -4.6704    0.0000 C   0  0  0  0  0  0  0  0  0  0  0  0
   -1.1760    0.4788   -0.9859 N   0  0  0  0  0  0  0  0  0  0  0  0
   -0.3598    0.9080   -0.0406 N   0  0  0  0  0  0  0  0  0  0  0  0
    3.3960   -0.2236   -0.9183 H   0  0  0  0  0  0  0  0  0  0  0  0
    4.5087    1.0093   -0.2600 H   0  0  0  0  0  0  0  0  0  0  0  0
    4.4574   -0.3766    0.0000 H   0  0  0  0  0  0  0  0  0  0  0  0
    1.8318   -0.9596    1.7374 H   0  0  0  0  0  0  0  0  0  0  0  0
    0.7579    0.2840    2.3948 H   0  0  0  0  0  0  0  0  0  0  0  0
    0.4512   -2.2776   -0.3781 H   0  0  0  0  0  0  0  0  0  0  0  0
   -1.6375   -2.6892   -1.7619 H   0  0  0  0  0  0  0  0  0  0  0  0
   -2.2652   -1.3038   -2.6577 H   0  0  0  0  0  0  0  0  0  0  0  0
   -3.6818   -0.6032   -0.7755 H   0  0  0  0  0  0  0  0  0  0  0  0
   -4.0570   -2.2373   -1.1849 H   0  0  0  0  0  0  0  0  0  0  0  0
   -2.4303   -1.2083    1.2156 H   0  0  0  0  0  0  0  0  0  0  0  0
   -4.6066   -1.0445    1.3979 H   0  0  0  0  0  0  0  0  0  0  0  0
   -1.2638   -3.2558    0.9015 H   0  0  0  0  0  0  0  0  0  0  0  0
   -2.5137   -3.6140    2.0772 H   0  0  0  0  0  0  0  0  0  0  0  0
   -4.0212   -4.6984   -1.0928 H   0  0  0  0  0  0  0  0  0  0  0  0
   -4.1229   -5.6611    0.4090 H   0  0  0  0  0  0  0  0  0  0  0  0
   -4.9098   -4.5586    0.0000 H   0  0  0  0  0  0  0  0  0  0  0  0
  1  2  1  0  0  0  0
  1 18  1  0  0  0  0
  1 19  1  0  0  0  0
  1 20  1  0  0  0  0
  2  3  1  0  0  0  0
  3  4  2  0  0  0  0
  3  5  1  0  0  0  0
  5  6  1  0  0  0  0
  5 21  1  0  0  0  0
  5 22  1  0  0  0  0
  6 17  1  0  0  0  0
  6  7  2  0  0  0  0
  7  8  1  0  0  0  0
  7 23  1  0  0  0  0
  8  9  1  0  0  0  0
  8 16  1  0  0  0  0
  9 10  1  0  0  0  0
  9 24  1  0  0  0  0
  9 25  1  0  0  0  0
 10 11  1  0  0  0  0
 10 26  1  0  0  0  0
 10 27  1  0  0  0  0
 11 12  1  0  0  0  0
 11 13  1  0  0  0  0
 11 28  1  1  0  0  0
 12 29  1  0  0  0  0
 13 14  1  0  0  0  0
 13 30  1  0  0  0  0
 13 31  1  0  0  0  0
 14 15  1  0  0  0  0
 15 32  1  0  0  0  0
 15 33  1  0  0  0  0
 15 34  1  0  0  0  0
 16 17  2  0  0  0  0
M  END
$$$$
