
 OpenBabel03202621322D

 17 17  0  0  0  0  0  0  0  0999 V2000
    1.0192    2.1984    0.0000 N   0  0  0  0  0  0  0  0  0  0  0  0
    1.0673    0.8298   -0.0000 C   0  0  0  0  0  0  0  0  0  0  0  0
    2.2659    0.1374   -0.0000 C   0  0  0  0  0  0  0  0  0  0  0  0
    2.2298   -1.2516    0.0000 C   0  0  0  0  0  0  0  0  0  0  0  0
    3.4184   -1.9201    0.0000 O   0  0  0  0  0  0  0  0  0  0  0  0
    1.0203   -1.9228   -0.0000 C   0  0  0  0  0  0  0  0  0  0  0  0
   -0.1201   -1.1413   -0.0000 C   0  0  0  0  0  0  0  0  0  0  0  0
   -1.3508   -1.8345   -0.0000 O   0  0  0  0  0  0  0  0  0  0  0  0
   -2.4985   -1.0777   -0.0000 C   0  0  0  0  0  0  0  0  0  0  0  0
   -3.6200   -1.5731    0.0000 O   0  0  0  0  0  0  0  0  0  0  0  0
   -0.1213    0.2050   -0.0000 N   0  0  0  0  0  0  0  0  0  0  0  0
    1.8451    2.7736   -0.0000 H   0  0  0  0  0  0  0  0  0  0  0  0
    0.0996    2.6144   -0.0000 H   0  0  0  0  0  0  0  0  0  0  0  0
    3.2155    0.6590    0.0000 H   0  0  0  0  0  0  0  0  0  0  0  0
    3.2497   -2.8776    0.0000 H   0  0  0  0  0  0  0  0  0  0  0  0
    0.9507   -3.0026    0.0000 H   0  0  0  0  0  0  0  0  0  0  0  0
   -2.3317    0.0065   -0.0000 H   0  0  0  0  0  0  0  0  0  0  0  0
  1  2  1  0  0  0  0
  1 12  1  0  0  0  0
  1 13  1  0  0  0  0
  2 11  2  0  0  0  0
  2  3  1  0  0  0  0
  3  4  2  0  0  0  0
  3 14  1  0  0  0  0
  4  5  1  0  0  0  0
  4  6  1  0  0  0  0
  5 15  1  0  0  0  0
  6  7  2  0  0  0  0
  6 16  1  0  0  0  0
  7  8  1  0  0  0  0
  7 11  1  0  0  0  0
  8  9  1  0  0  0  0
  9 10  2  0  0  0  0
  9 17  1  0  0  0  0
M  END
$$$$
