
 OpenBabel03202621362D

 18 18  0  0  1  0  0  0  0  0999 V2000
    2.7321   -1.0000    0.0000 C   0  0  0  0  0  0  0  0  0  0  0  0
    2.7321    0.0000    0.0000 S   0  0  0  0  0  0  0  0  0  0  0  0
    1.6941    1.1574   -0.0000 C   0  0  0  0  0  0  0  0  0  0  0  0
    1.5986    2.3600    0.0000 O   0  0  0  0  0  0  0  0  0  0  0  0
    1.0000    0.0000    0.0000 C   0  0  1  0  0  0  0  0  0  0  0  0
    0.5000   -0.8660    0.0000 C   0  0  1  0  0  0  0  0  0  0  0  0
    0.5000   -1.8660    0.0000 C   0  0  0  0  0  0  0  0  0  0  0  0
    0.0000    0.0000    0.0000 C   0  0  0  0  0  0  0  0  0  0  0  0
   -0.5000    0.8660    0.0000 F   0  0  0  0  0  0  0  0  0  0  0  0
   -1.0000    0.0000    0.0000 F   0  0  0  0  0  0  0  0  0  0  0  0
    2.3347   -1.9506   -0.0000 H   0  0  0  0  0  0  0  0  0  0  0  0
    3.8314   -1.1463    0.0000 H   0  0  0  0  0  0  0  0  0  0  0  0
    2.7321   -2.0700    0.0000 H   0  0  0  0  0  0  0  0  0  0  0  0
    1.3514   -0.6855   -0.0000 H   0  0  0  0  0  0  0  0  0  0  0  0
    0.9913   -1.7715    0.0000 H   0  0  0  0  0  0  0  0  0  0  0  0
   -0.6333   -2.1549   -0.0000 H   0  0  0  0  0  0  0  0  0  0  0  0
    1.3491   -3.0607   -0.0000 H   0  0  0  0  0  0  0  0  0  0  0  0
    0.5000   -2.9360    0.0000 H   0  0  0  0  0  0  0  0  0  0  0  0
  1  2  1  0  0  0  0
  1 11  1  0  0  0  0
  1 12  1  0  0  0  0
  1 13  1  0  0  0  0
  2  3  1  0  0  0  0
  3  4  2  0  0  0  0
  5  3  1  0  0  0  0
  5  6  1  0  0  0  0
  5  8  1  0  0  0  0
  5 14  1  6  0  0  0
  6  7  1  0  0  0  0
  6  8  1  0  0  0  0
  6 15  1  6  0  0  0
  7 16  1  0  0  0  0
  7 17  1  0  0  0  0
  7 18  1  0  0  0  0
  8  9  1  0  0  0  0
  8 10  1  0  0  0  0
M  END
$$$$
