
 OpenBabel03202621322D

 22 21  0  0  0  0  0  0  0  0999 V2000
    4.3301    0.5000    0.0000 C   0  0  0  0  0  0  0  0  0  0  0  0
    4.3301    1.5000    0.0000 C   0  0  0  0  0  0  0  0  0  0  0  0
    3.8880    2.7743   -0.0000 C   0  0  0  0  0  0  0  0  0  0  0  0
    2.5265    2.8727   -0.0000 C   0  0  0  0  0  3  0  0  0  0  0  0
    1.2802    3.4594   -0.0000 C   0  0  0  0  0  0  0  0  0  0  0  0
    1.1329    4.7845   -0.0000 C   0  0  0  0  0  0  0  0  0  0  0  0
   -0.0559    5.4413    0.0000 O   0  0  0  0  0  0  0  0  0  0  0  0
    0.1991    2.4126   -0.0000 C   0  0  0  0  0  0  0  0  0  0  0  0
   -0.9976    2.6557    0.0000 O   0  0  0  0  0  0  0  0  0  0  0  0
    0.8660    0.5000    0.0000 S   0  0  0  0  0  0  0  0  0  0  0  0
    0.0000    0.0000    0.0000 C   0  0  0  0  0  0  0  0  0  0  0  0
    3.3092    0.1596   -0.0000 H   0  0  0  0  0  0  0  0  0  0  0  0
    5.3746    0.1342   -0.0000 H   0  0  0  0  0  0  0  0  0  0  0  0
    4.3301   -0.5700    0.0000 H   0  0  0  0  0  0  0  0  0  0  0  0
    5.4032    1.8179    0.0000 H   0  0  0  0  0  0  0  0  0  0  0  0
    4.5184    3.6546   -0.0000 H   0  0  0  0  0  0  0  0  0  0  0  0
    2.3524    1.8575    0.0000 H   0  0  0  0  0  0  0  0  0  0  0  0
    1.9916    5.4471   -0.0000 H   0  0  0  0  0  0  0  0  0  0  0  0
    0.1279    6.3958    0.0000 H   0  0  0  0  0  0  0  0  0  0  0  0
   -0.8897    0.6166    0.0000 H   0  0  0  0  0  0  0  0  0  0  0  0
    0.2683   -1.0618    0.0000 H   0  0  0  0  0  0  0  0  0  0  0  0
   -0.9266   -0.5350    0.0000 H   0  0  0  0  0  0  0  0  0  0  0  0
  1  2  1  0  0  0  0
  1 12  1  0  0  0  0
  1 13  1  0  0  0  0
  1 14  1  0  0  0  0
  2  3  2  3  0  0  0
  2 15  1  0  0  0  0
  3  4  1  0  0  0  0
  3 16  1  0  0  0  0
  4  5  1  0  0  0  0
  4 17  1  0  0  0  0
  5  6  2  3  0  0  0
  5  8  1  0  0  0  0
  6  7  1  0  0  0  0
  6 18  1  0  0  0  0
  7 19  1  0  0  0  0
  8  9  2  0  0  0  0
  8 10  1  0  0  0  0
 10 11  1  0  0  0  0
 11 20  1  0  0  0  0
 11 21  1  0  0  0  0
 11 22  1  0  0  0  0
M  END
$$$$
