
 OpenBabel03202621362D

 24 23  0  0  1  0  0  0  0  0999 V2000
    5.9687   -0.1088   -0.2332 C   0  0  0  0  0  0  0  0  0  0  0  0
    5.8295    1.2244   -0.1535 C   0  0  0  0  0  0  0  0  0  0  0  0
    4.5533    2.0043    0.0630 C   0  0  0  0  0  0  0  0  0  0  0  0
    3.2837    1.4185   -0.5830 C   0  0  0  0  0  0  0  0  0  0  0  0
    1.7321    2.0000    0.0000 C   0  0  1  0  0  0  0  0  0  0  0  0
    1.7321    3.0000    0.0000 C   0  0  0  0  0  0  0  0  0  0  0  0
    0.7651    1.7121   -1.0551 C   0  0  0  0  0  0  0  0  0  0  0  0
   -0.1268    2.2391   -1.6712 O   0  0  0  0  0  0  0  0  0  0  0  0
    0.8660    0.5000    0.0000 S   0  0  0  0  0  0  0  0  0  0  0  0
    0.0000    0.0000    0.0000 C   0  0  0  0  0  0  0  0  0  0  0  0
    5.1363   -0.7980   -0.1343 H   0  0  0  0  0  0  0  0  0  0  0  0
    6.9527   -0.5578   -0.3546 H   0  0  0  0  0  0  0  0  0  0  0  0
    6.7379    1.8231   -0.2068 H   0  0  0  0  0  0  0  0  0  0  0  0
    4.7109    3.0076   -0.3470 H   0  0  0  0  0  0  0  0  0  0  0  0
    4.4199    2.1104    1.1460 H   0  0  0  0  0  0  0  0  0  0  0  0
    3.3126    0.3343   -0.4016 H   0  0  0  0  0  0  0  0  0  0  0  0
    3.3225    1.5419   -1.6728 H   0  0  0  0  0  0  0  0  0  0  0  0
    1.8351    1.7887    1.1582 H   0  0  0  0  0  0  0  0  0  0  0  0
    2.6173    3.2670    0.6301 H   0  0  0  0  0  0  0  0  0  0  0  0
    0.8167    3.2331    0.6245 H   0  0  0  0  0  0  0  0  0  0  0  0
    1.7321    4.0700    0.0000 H   0  0  0  0  0  0  0  0  0  0  0  0
   -0.4656    0.4339    0.9096 H   0  0  0  0  0  0  0  0  0  0  0  0
    0.3814   -1.0046    0.2668 H   0  0  0  0  0  0  0  0  0  0  0  0
   -0.9266   -0.5350    0.0000 H   0  0  0  0  0  0  0  0  0  0  0  0
  1  2  2  0  0  0  0
  1 11  1  0  0  0  0
  1 12  1  0  0  0  0
  2  3  1  0  0  0  0
  2 13  1  0  0  0  0
  3  4  1  0  0  0  0
  3 14  1  0  0  0  0
  3 15  1  0  0  0  0
  4  5  1  0  0  0  0
  4 16  1  0  0  0  0
  4 17  1  0  0  0  0
  5  6  1  0  0  0  0
  5  7  1  0  0  0  0
  5 18  1  1  0  0  0
  6 19  1  0  0  0  0
  6 20  1  0  0  0  0
  6 21  1  0  0  0  0
  7  8  2  0  0  0  0
  7  9  1  0  0  0  0
  9 10  1  0  0  0  0
 10 22  1  0  0  0  0
 10 23  1  0  0  0  0
 10 24  1  0  0  0  0
M  END
$$$$
