
 OpenBabel03202621282D

 19 21  0  0  1  0  0  0  0  0999 V2000
    1.6730   -0.6137    0.0000 C   0  0  0  0  0  0  0  0  0  0  0  0
    0.6802   -0.7331    0.0000 C   0  0  0  0  0  0  0  0  0  0  0  0
    0.1932   -1.6065    0.0000 C   0  0  0  0  0  0  0  0  0  0  0  0
   -0.7880   -1.4132    0.0000 N   0  0  0  0  0  0  0  0  0  0  0  0
   -1.5210   -2.0934    0.0000 C   0  0  2  0  0  0  0  0  0  0  0  0
   -1.2263   -3.0489    0.0000 C   0  0  0  0  0  0  0  0  0  0  0  0
   -0.2374   -3.1980    0.0000 O   0  0  0  0  0  0  0  0  0  0  0  0
   -1.7896   -3.8752    0.0000 N   0  0  0  0  0  0  0  0  0  0  0  0
   -1.2896   -4.7412    0.0000 C   0  0  0  0  0  0  0  0  0  0  0  0
   -2.7868   -3.9499    0.0000 N   0  0  0  0  0  0  0  0  0  0  0  0
   -3.4670   -3.2169    0.0000 C   0  0  0  0  0  0  0  0  0  0  0  0
   -3.3179   -2.2280    0.0000 C   0  0  0  0  0  0  0  0  0  0  0  0
   -4.1839   -1.7280    0.0000 C   0  0  0  0  0  0  0  0  0  0  0  0
   -4.1839   -0.7280    0.0000 C   0  0  0  0  0  0  0  0  0  0  0  0
   -3.3179   -0.2280    0.0000 C   0  0  0  0  0  0  0  0  0  0  0  0
   -2.4519   -0.7280    0.0000 C   0  0  0  0  0  0  0  0  0  0  0  0
   -2.4519   -1.7280    0.0000 C   0  0  0  0  0  0  0  0  0  0  0  0
   -0.9074   -0.4204    0.0000 N   0  0  0  0  0  0  0  0  0  0  0  0
    0.0000   -0.0000    0.0000 N   0  0  0  0  0  0  0  0  0  0  0  0
  1  2  1  0  0  0  0
  2 19  1  0  0  0  0
  2  3  2  0  0  0  0
  3  4  1  0  0  0  0
  4 18  1  0  0  0  0
  5  4  1  6  0  0  0
  5  6  1  0  0  0  0
  5 17  1  0  0  0  0
  6  7  2  0  0  0  0
  6  8  1  0  0  0  0
  8  9  1  0  0  0  0
  8 10  1  0  0  0  0
 10 11  2  0  0  0  0
 11 12  1  0  0  0  0
 12 17  2  0  0  0  0
 12 13  1  0  0  0  0
 13 14  2  0  0  0  0
 14 15  1  0  0  0  0
 15 16  2  0  0  0  0
 16 17  1  0  0  0  0
 18 19  2  0  0  0  0
M  END
$$$$
