
 OpenBabel03202621312D

 25 25  0  0  1  0  0  0  0  0999 V2000
   -3.1622    1.8781    0.0000 C   0  0  0  0  0  0  0  0  0  0  0  0
   -2.9543    0.9000    0.0000 C   0  0  2  0  0  0  0  0  0  0  0  0
   -3.9361   -0.0582    0.7695 C   0  0  0  0  0  0  0  0  0  0  0  0
   -3.8503   -1.8083    0.2046 S   0  0  0  0  0  0  0  0  0  0  0  0
   -2.1470   -2.1110    0.4762 C   0  0  0  0  0  0  0  0  0  0  0  0
   -1.4237   -2.5856   -0.3931 O   0  0  0  0  0  0  0  0  0  0  0  0
   -1.6279    0.6122    0.5997 O   0  0  0  0  0  0  0  0  0  0  0  0
   -0.5566    1.4912    0.1907 C   0  0  0  0  0  0  0  0  0  0  0  0
    0.7607    0.8191    0.3305 C   0  0  0  0  0  0  0  0  0  0  0  0
    1.9059    1.4253    0.5724 N   0  0  0  0  0  0  0  0  0  0  0  0
    2.8777    0.4743    0.3887 C   0  0  0  0  0  0  0  0  0  0  0  0
    2.3133   -0.7276    0.0645 C   0  0  0  0  0  0  0  0  0  0  0  0
    0.9675   -0.5080    0.0266 N   0  0  0  0  0  0  0  0  0  0  0  0
   -2.5731    2.2316   -0.8819 H   0  0  0  0  0  0  0  0  0  0  0  0
   -4.2094    1.8629   -0.3937 H   0  0  0  0  0  0  0  0  0  0  0  0
   -3.3847    2.9247    0.0000 H   0  0  0  0  0  0  0  0  0  0  0  0
   -2.8695    0.4166   -0.9934 H   0  0  0  0  0  0  0  0  0  0  0  0
   -3.7663   -0.0283    1.8513 H   0  0  0  0  0  0  0  0  0  0  0  0
   -4.9824    0.2219    0.5833 H   0  0  0  0  0  0  0  0  0  0  0  0
   -1.7481   -1.8247    1.4574 H   0  0  0  0  0  0  0  0  0  0  0  0
   -0.5906    2.3908    0.8139 H   0  0  0  0  0  0  0  0  0  0  0  0
   -0.6490    1.7631   -0.8662 H   0  0  0  0  0  0  0  0  0  0  0  0
    3.9254    0.7218    0.4798 H   0  0  0  0  0  0  0  0  0  0  0  0
    2.7369   -1.6951   -0.1674 H   0  0  0  0  0  0  0  0  0  0  0  0
    0.2478   -1.1695   -0.2434 H   0  0  0  0  0  0  0  0  0  0  0  0
  1 14  1  0  0  0  0
  1 15  1  0  0  0  0
  1 16  1  0  0  0  0
  2  1  1  0  0  0  0
  2  3  1  0  0  0  0
  2  7  1  0  0  0  0
  2 17  1  6  0  0  0
  3  4  1  0  0  0  0
  3 18  1  0  0  0  0
  3 19  1  0  0  0  0
  4  5  1  0  0  0  0
  5  6  2  0  0  0  0
  5 20  1  0  0  0  0
  7  8  1  0  0  0  0
  8  9  1  0  0  0  0
  8 21  1  0  0  0  0
  8 22  1  0  0  0  0
  9 13  1  0  0  0  0
  9 10  2  0  0  0  0
 10 11  1  0  0  0  0
 11 12  2  0  0  0  0
 11 23  1  0  0  0  0
 12 13  1  0  0  0  0
 12 24  1  0  0  0  0
 13 25  1  0  0  0  0
M  END
$$$$
