
 OpenBabel03202621322D

 24 24  0  0  0  0  0  0  0  0999 V2000
    0.8660    3.5000    0.0000 C   0  0  0  0  0  0  0  0  0  0  0  0
    0.0000    3.0000    0.0000 S   0  0  0  0  0  0  0  0  0  0  0  0
   -0.2564    1.3502   -0.4645 C   0  0  0  0  0  0  0  0  0  0  0  0
   -1.4655    0.9839   -1.5643 S   0  0  0  0  0  0  0  0  0  0  0  0
    0.6481    0.5045    0.1273 N   0  0  0  0  0  0  0  0  0  0  0  0
    0.7392   -0.9026    0.0513 C   0  0  0  0  0  0  0  0  0  0  0  0
    2.0344   -1.4093   -0.1392 C   0  0  0  0  0  0  0  0  0  0  0  0
    2.2524   -2.7787   -0.2523 C   0  0  0  0  0  0  0  0  0  0  0  0
    1.1874   -3.6636   -0.1392 C   0  0  0  0  0  0  0  0  0  0  0  0
   -0.0986   -3.1790    0.1075 C   0  0  0  0  0  0  0  0  0  0  0  0
   -0.3405   -1.8006    0.2104 C   0  0  0  0  0  0  0  0  0  0  0  0
   -1.5399   -1.3082    0.6562 O   0  0  0  0  0  0  0  0  0  0  0  0
   -2.7001   -1.9545    0.1416 C   0  0  0  0  0  0  0  0  0  0  0  0
   -3.7747   -1.1998    0.4916 F   0  0  0  0  0  0  0  0  0  0  0  0
   -2.8714   -3.1500    0.7629 F   0  0  0  0  0  0  0  0  0  0  0  0
    1.2420    3.2496   -1.0130 H   0  0  0  0  0  0  0  0  0  0  0  0
    0.4675    4.5316   -0.0397 H   0  0  0  0  0  0  0  0  0  0  0  0
    1.7926    4.0350    0.0000 H   0  0  0  0  0  0  0  0  0  0  0  0
    1.4697    0.9725    0.4791 H   0  0  0  0  0  0  0  0  0  0  0  0
    2.8847   -0.7347   -0.2416 H   0  0  0  0  0  0  0  0  0  0  0  0
    3.2574   -3.1571   -0.4232 H   0  0  0  0  0  0  0  0  0  0  0  0
    1.3593   -4.7352   -0.2080 H   0  0  0  0  0  0  0  0  0  0  0  0
   -0.8825   -3.9126    0.2733 H   0  0  0  0  0  0  0  0  0  0  0  0
   -2.6878   -2.0814   -0.9469 H   0  0  0  0  0  0  0  0  0  0  0  0
  1  2  1  0  0  0  0
  1 16  1  0  0  0  0
  1 17  1  0  0  0  0
  1 18  1  0  0  0  0
  2  3  1  0  0  0  0
  3  4  2  0  0  0  0
  3  5  1  0  0  0  0
  5  6  1  0  0  0  0
  5 19  1  0  0  0  0
  6 11  2  0  0  0  0
  6  7  1  0  0  0  0
  7  8  2  0  0  0  0
  7 20  1  0  0  0  0
  8  9  1  0  0  0  0
  8 21  1  0  0  0  0
  9 10  2  0  0  0  0
  9 22  1  0  0  0  0
 10 11  1  0  0  0  0
 10 23  1  0  0  0  0
 11 12  1  0  0  0  0
 12 13  1  0  0  0  0
 13 14  1  0  0  0  0
 13 15  1  0  0  0  0
 13 24  1  0  0  0  0
M  END
$$$$
