
 OpenBabel03202621402D

 61 63  0  0  1  0  0  0  0  0999 V2000
    6.9049   -7.0622    0.0000 C   0  0  0  0  0  0  0  0  0  0  0  0
    7.9049   -7.0622    0.0000 C   0  0  0  0  0  0  0  0  0  0  0  0
    8.5774   -8.1024   -0.1646 O   0  0  0  0  0  0  0  0  0  0  0  0
    8.7897   -5.8048    0.1132 C   0  0  0  0  0  0  0  0  0  0  0  0
    8.2335   -4.4999    0.6912 C   0  0  0  0  0  0  0  0  0  0  0  0
    8.9234   -3.4913    0.7471 O   0  0  0  0  0  0  0  0  0  0  0  0
    6.7927   -4.5395    1.1102 C   0  0  2  0  0  0  0  0  0  0  0  0
    6.6679   -5.4067    2.2193 O   0  0  0  0  0  0  0  0  0  0  0  0
    5.8834   -3.3617    1.3109 C   0  0  0  0  0  0  0  0  0  0  0  0
    6.1375   -2.4752    2.1322 O   0  0  0  0  0  0  0  0  0  0  0  0
    4.5630   -3.3555    0.5037 C   0  0  2  0  0  0  0  0  0  0  0  0
    4.1071   -4.7876    0.0812 C   0  0  0  0  0  0  0  0  0  0  0  0
    2.6132   -5.0736    0.0461 C   0  0  0  0  0  0  0  0  0  0  0  0
    1.8720   -3.9788   -0.4390 O   0  0  0  0  0  0  0  0  0  0  0  0
    4.6031   -2.4504   -0.7379 C   0  0  0  0  0  0  0  0  0  0  0  0
    3.7877   -2.5870   -1.6499 O   0  0  0  0  0  0  0  0  0  0  0  0
    5.5838   -1.3388   -0.7910 C   0  0  0  0  0  0  0  0  0  0  0  0
    6.9463   -1.6195   -0.8620 C   0  0  0  0  0  0  0  0  0  0  0  0
    7.8741   -0.6143   -0.5997 C   0  0  0  0  0  0  0  0  0  0  0  0
    7.4407    0.6846   -0.3374 C   0  0  0  0  0  0  0  0  0  0  0  0
    6.0801    0.9959   -0.4077 C   0  0  0  0  0  0  0  0  0  0  0  0
    5.1547   -0.0195   -0.6453 C   0  0  0  0  0  0  0  0  0  0  0  0
    3.8491    0.2559   -0.9098 O   0  0  0  0  0  0  0  0  0  0  0  0
    3.1323    0.8535    0.1613 C   0  0  0  0  0  0  0  0  0  0  0  0
    1.7165    0.4483   -0.0636 C   0  0  0  0  0  0  0  0  0  0  0  0
    0.6985    1.2325   -0.3854 N   0  0  0  0  0  0  0  0  0  0  0  0
   -0.3806    0.4015   -0.4408 C   0  0  0  0  0  0  0  0  0  0  0  0
   -0.0350   -0.8865   -0.1202 C   0  0  0  0  0  0  0  0  0  0  0  0
    1.3177   -0.8699    0.0229 N   0  0  0  0  0  0  0  0  0  0  0  0
   -0.9488   -2.0223    0.1210 C   0  0  0  0  0  0  0  0  0  0  0  0
   -2.4238   -1.5479    0.1499 C   0  0  0  0  0  0  0  0  0  0  0  0
   -2.6524   -0.0271    0.3239 C   0  0  0  0  0  0  0  0  0  0  0  0
   -1.7858    0.8111   -0.6373 C   0  0  0  0  0  0  0  0  0  0  0  0
    6.7584   -7.4403   -1.0395 H   0  0  0  0  0  0  0  0  0  0  0  0
    6.7485   -7.8344    0.7910 H   0  0  0  0  0  0  0  0  0  0  0  0
    5.8349   -7.0622    0.0000 H   0  0  0  0  0  0  0  0  0  0  0  0
    9.1541   -5.5904   -0.8963 H   0  0  0  0  0  0  0  0  0  0  0  0
    9.6426   -6.0766    0.7477 H   0  0  0  0  0  0  0  0  0  0  0  0
    6.3780   -4.9614    0.2043 H   0  0  0  0  0  0  0  0  0  0  0  0
    7.0446   -4.9278    2.9875 H   0  0  0  0  0  0  0  0  0  0  0  0
    3.8084   -2.9543    1.1920 H   0  0  0  0  0  0  0  0  0  0  0  0
    4.5090   -5.0029   -0.9199 H   0  0  0  0  0  0  0  0  0  0  0  0
    4.5072   -5.5470    0.7573 H   0  0  0  0  0  0  0  0  0  0  0  0
    2.4262   -5.9580   -0.5796 H   0  0  0  0  0  0  0  0  0  0  0  0
    2.2593   -5.3163    1.0528 H   0  0  0  0  0  0  0  0  0  0  0  0
    2.2885   -3.6782   -1.2773 H   0  0  0  0  0  0  0  0  0  0  0  0
    7.3007   -2.6186   -1.0883 H   0  0  0  0  0  0  0  0  0  0  0  0
    8.9358   -0.8532   -0.5746 H   0  0  0  0  0  0  0  0  0  0  0  0
    8.1687    1.4592   -0.1080 H   0  0  0  0  0  0  0  0  0  0  0  0
    5.7606    2.0271   -0.2909 H   0  0  0  0  0  0  0  0  0  0  0  0
    3.2331    1.9431    0.1169 H   0  0  0  0  0  0  0  0  0  0  0  0
    3.4753    0.4922    1.1389 H   0  0  0  0  0  0  0  0  0  0  0  0
    1.9109   -1.6733    0.1976 H   0  0  0  0  0  0  0  0  0  0  0  0
   -0.6992   -2.4961    1.0770 H   0  0  0  0  0  0  0  0  0  0  0  0
   -0.8261   -2.7851   -0.6570 H   0  0  0  0  0  0  0  0  0  0  0  0
   -2.9035   -1.8576   -0.7870 H   0  0  0  0  0  0  0  0  0  0  0  0
   -2.9510   -2.0809    0.9514 H   0  0  0  0  0  0  0  0  0  0  0  0
   -3.7101    0.2089    0.1720 H   0  0  0  0  0  0  0  0  0  0  0  0
   -2.4033    0.2511    1.3580 H   0  0  0  0  0  0  0  0  0  0  0  0
   -1.9135    1.8799   -0.4419 H   0  0  0  0  0  0  0  0  0  0  0  0
   -2.0858    0.6185   -1.6745 H   0  0  0  0  0  0  0  0  0  0  0  0
  1  2  1  0  0  0  0
  1 34  1  0  0  0  0
  1 35  1  0  0  0  0
  1 36  1  0  0  0  0
  2  3  2  0  0  0  0
  2  4  1  0  0  0  0
  4  5  1  0  0  0  0
  4 37  1  0  0  0  0
  4 38  1  0  0  0  0
  5  6  2  0  0  0  0
  5  7  1  0  0  0  0
  7  8  1  0  0  0  0
  7  9  1  0  0  0  0
  7 39  1  1  0  0  0
  8 40  1  0  0  0  0
  9 10  2  0  0  0  0
  9 11  1  0  0  0  0
 11 12  1  0  0  0  0
 11 15  1  0  0  0  0
 11 41  1  1  0  0  0
 12 13  1  0  0  0  0
 12 42  1  0  0  0  0
 12 43  1  0  0  0  0
 13 14  1  0  0  0  0
 13 44  1  0  0  0  0
 13 45  1  0  0  0  0
 14 46  1  0  0  0  0
 15 16  2  0  0  0  0
 15 17  1  0  0  0  0
 17 22  2  0  0  0  0
 17 18  1  0  0  0  0
 18 19  2  0  0  0  0
 18 47  1  0  0  0  0
 19 20  1  0  0  0  0
 19 48  1  0  0  0  0
 20 21  2  0  0  0  0
 20 49  1  0  0  0  0
 21 22  1  0  0  0  0
 21 50  1  0  0  0  0
 22 23  1  0  0  0  0
 23 24  1  0  0  0  0
 24 25  1  0  0  0  0
 24 51  1  0  0  0  0
 24 52  1  0  0  0  0
 25 29  1  0  0  0  0
 25 26  2  0  0  0  0
 26 27  1  0  0  0  0
 27 33  1  0  0  0  0
 27 28  2  0  0  0  0
 28 29  1  0  0  0  0
 28 30  1  0  0  0  0
 29 53  1  0  0  0  0
 30 31  1  0  0  0  0
 30 54  1  0  0  0  0
 30 55  1  0  0  0  0
 31 32  1  0  0  0  0
 31 56  1  0  0  0  0
 31 57  1  0  0  0  0
 32 33  1  0  0  0  0
 32 58  1  0  0  0  0
 32 59  1  0  0  0  0
 33 60  1  0  0  0  0
 33 61  1  0  0  0  0
M  END
$$$$
