
 OpenBabel03202621342D

 25 26  0  0  0  0  0  0  0  0999 V2000
    4.3581   -1.7788    0.0000 C   0  0  0  0  0  0  0  0  0  0  0  0
    3.4071   -2.0878    0.0000 N   0  0  0  0  0  0  0  0  0  0  0  0
    3.0130   -3.3837    0.1720 N   0  0  0  0  0  0  0  0  0  0  0  0
    1.7983   -3.5310   -0.3284 N   0  0  0  0  0  0  0  0  0  0  0  0
    1.3479   -2.3037   -0.6873 C   0  0  0  0  0  0  0  0  0  0  0  0
    2.2726   -1.3413   -0.3320 C   0  0  0  0  0  0  0  0  0  0  0  0
    2.2540    0.1045   -0.3696 C   0  0  0  0  0  0  0  0  0  0  0  0
    3.2773    0.7693   -0.4803 O   0  0  0  0  0  0  0  0  0  0  0  0
    1.0278    0.7214   -0.2637 O   0  0  0  0  0  0  0  0  0  0  0  0
   -0.2605    0.2849    0.1158 C   0  0  0  0  0  0  0  0  0  0  0  0
   -0.5434   -0.6542    1.0298 C   0  0  0  0  0  0  0  0  0  0  0  0
   -1.7957   -1.1563    1.3026 O   0  0  0  0  0  0  0  0  0  0  0  0
   -2.7237   -0.9200    0.2369 C   0  0  0  0  0  0  0  0  0  0  0  0
   -2.8001    0.5533   -0.0928 C   0  0  0  0  0  0  0  0  0  0  0  0
   -1.4178    1.0210   -0.4669 C   0  0  0  0  0  0  0  0  0  0  0  0
   -1.2418    2.0064   -1.1801 O   0  0  0  0  0  0  0  0  0  0  0  0
    4.9576   -2.6709   -0.3052 H   0  0  0  0  0  0  0  0  0  0  0  0
    4.5335   -1.5548    1.0780 H   0  0  0  0  0  0  0  0  0  0  0  0
    5.3757   -1.4482    0.0000 H   0  0  0  0  0  0  0  0  0  0  0  0
    0.3741   -2.1855   -1.1398 H   0  0  0  0  0  0  0  0  0  0  0  0
    0.1884   -1.1579    1.6482 H   0  0  0  0  0  0  0  0  0  0  0  0
   -2.4218   -1.5133   -0.6369 H   0  0  0  0  0  0  0  0  0  0  0  0
   -3.7038   -1.2923    0.5561 H   0  0  0  0  0  0  0  0  0  0  0  0
   -3.1379    1.1357    0.7706 H   0  0  0  0  0  0  0  0  0  0  0  0
   -3.4771    0.7172   -0.9376 H   0  0  0  0  0  0  0  0  0  0  0  0
  1  2  1  0  0  0  0
  1 17  1  0  0  0  0
  1 18  1  0  0  0  0
  1 19  1  0  0  0  0
  2  6  1  0  0  0  0
  2  3  1  0  0  0  0
  3  4  2  0  0  0  0
  4  5  1  0  0  0  0
  5  6  2  0  0  0  0
  5 20  1  0  0  0  0
  6  7  1  0  0  0  0
  7  8  2  0  0  0  0
  7  9  1  0  0  0  0
  9 10  1  0  0  0  0
 10 15  1  0  0  0  0
 10 11  2  0  0  0  0
 11 12  1  0  0  0  0
 11 21  1  0  0  0  0
 12 13  1  0  0  0  0
 13 14  1  0  0  0  0
 13 22  1  0  0  0  0
 13 23  1  0  0  0  0
 14 15  1  0  0  0  0
 14 24  1  0  0  0  0
 14 25  1  0  0  0  0
 15 16  2  0  0  0  0
M  END
$$$$
