
 OpenBabel03202621372D

 32 33  0  0  1  0  0  0  0  0999 V2000
    1.1924   -3.0566    0.0836 C   0  0  0  0  0  0  0  0  0  0  0  0
    0.3478   -1.8469   -0.0045 C   0  0  0  0  0  0  0  0  0  0  0  0
   -0.9656   -1.6470    0.3381 C   0  0  0  0  0  0  0  0  0  0  0  0
   -1.2120   -0.3409    0.0038 N   0  0  0  0  0  0  0  0  0  0  0  0
   -2.4509    0.4352    0.2149 C   0  0  2  0  0  0  0  0  0  0  0  0
   -3.6163   -0.2411   -0.5349 C   0  0  0  0  0  0  0  0  0  0  0  0
   -4.9112   -0.3095    0.2715 C   0  0  0  0  0  0  0  0  0  0  0  0
   -5.9295    0.7634    0.0717 C   0  0  0  0  0  0  0  0  0  0  0  0
   -5.8369    2.0488   -0.2870 C   0  0  0  0  0  0  0  0  0  0  0  0
   -4.6777    2.9648   -0.5297 C   0  0  0  0  0  0  0  0  0  0  0  0
   -3.4262    2.8484    0.3316 C   0  0  0  0  0  0  0  0  0  0  0  0
   -2.3029    1.9342   -0.1703 C   0  0  2  0  0  0  0  0  0  0  0  0
   -1.1200    2.4884    0.4432 O   0  0  0  0  0  0  0  0  0  0  0  0
   -0.1006    0.2288   -0.5040 N   0  0  0  0  0  0  0  0  0  0  0  0
    0.8675   -0.6735   -0.4872 N   0  0  0  0  0  0  0  0  0  0  0  0
    0.6688   -3.8722    0.5874 H   0  0  0  0  0  0  0  0  0  0  0  0
    2.1127   -2.8484    0.6326 H   0  0  0  0  0  0  0  0  0  0  0  0
    1.4596   -3.3958   -0.9232 H   0  0  0  0  0  0  0  0  0  0  0  0
   -1.7223   -2.3035    0.7443 H   0  0  0  0  0  0  0  0  0  0  0  0
   -2.5927    0.3683    1.3013 H   0  0  0  0  0  0  0  0  0  0  0  0
   -3.7750    0.2160   -1.5190 H   0  0  0  0  0  0  0  0  0  0  0  0
   -3.3531   -1.2852   -0.7588 H   0  0  0  0  0  0  0  0  0  0  0  0
   -5.4108   -1.2429   -0.0404 H   0  0  0  0  0  0  0  0  0  0  0  0
   -4.7162   -0.4401    1.3420 H   0  0  0  0  0  0  0  0  0  0  0  0
   -6.9509    0.3968    0.2145 H   0  0  0  0  0  0  0  0  0  0  0  0
   -6.7945    2.5620   -0.4123 H   0  0  0  0  0  0  0  0  0  0  0  0
   -4.4349    2.9918   -1.5984 H   0  0  0  0  0  0  0  0  0  0  0  0
   -5.0777    3.9659   -0.3059 H   0  0  0  0  0  0  0  0  0  0  0  0
   -3.6774    2.6128    1.3741 H   0  0  0  0  0  0  0  0  0  0  0  0
   -3.0032    3.8654    0.3703 H   0  0  0  0  0  0  0  0  0  0  0  0
   -2.1799    2.0433   -1.2575 H   0  0  0  0  0  0  0  0  0  0  0  0
   -0.3536    1.9996    0.0673 H   0  0  0  0  0  0  0  0  0  0  0  0
  1  2  1  0  0  0  0
  1 16  1  0  0  0  0
  1 17  1  0  0  0  0
  1 18  1  0  0  0  0
  2 15  1  0  0  0  0
  2  3  2  0  0  0  0
  3  4  1  0  0  0  0
  3 19  1  0  0  0  0
  4 14  1  0  0  0  0
  5  4  1  0  0  0  0
  5  6  1  0  0  0  0
  5 12  1  0  0  0  0
  5 20  1  1  0  0  0
  6  7  1  0  0  0  0
  6 21  1  0  0  0  0
  6 22  1  0  0  0  0
  7  8  1  0  0  0  0
  7 23  1  0  0  0  0
  7 24  1  0  0  0  0
  8  9  2  0  0  0  0
  8 25  1  0  0  0  0
  9 10  1  0  0  0  0
  9 26  1  0  0  0  0
 10 11  1  0  0  0  0
 10 27  1  0  0  0  0
 10 28  1  0  0  0  0
 11 12  1  0  0  0  0
 11 29  1  0  0  0  0
 11 30  1  0  0  0  0
 12 13  1  0  0  0  0
 12 31  1  1  0  0  0
 13 32  1  0  0  0  0
 14 15  2  0  0  0  0
M  END
$$$$
