
 OpenBabel03202621312D

 22 23  0  0  0  0  0  0  0  0999 V2000
   -2.6750   -4.3262   -0.1120 N   0  0  0  0  0  0  0  0  0  0  0  0
   -2.9075   -3.1895   -0.0917 C   0  0  0  0  0  0  0  0  0  0  0  0
   -3.2417   -1.7919   -0.0607 C   0  0  0  0  0  0  0  0  0  0  0  0
   -4.5895   -1.5257   -0.1353 N   0  0  0  0  0  0  0  0  0  0  0  0
   -4.9163   -0.2172   -0.0510 C   0  0  0  0  0  0  0  0  0  0  0  0
   -3.9648    0.7647    0.1115 C   0  0  0  0  0  0  0  0  0  0  0  0
   -2.6573    0.4730    0.2143 N   0  0  0  0  0  0  0  0  0  0  0  0
   -2.2671   -0.8055    0.0837 C   0  0  0  0  0  0  0  0  0  0  0  0
   -0.9726   -1.2350    0.3245 O   0  0  0  0  0  0  0  0  0  0  0  0
    0.2746   -0.6569    0.0214 C   0  0  0  0  0  0  0  0  0  0  0  0
    1.2664   -1.5654   -0.1047 C   0  0  0  0  0  0  0  0  0  0  0  0
    2.6127   -1.3492   -0.2249 O   0  0  0  0  0  0  0  0  0  0  0  0
    3.0502    0.0015   -0.0458 C   0  0  0  0  0  0  0  0  0  0  0  0
    1.9806    1.0316    0.0055 C   0  0  0  0  0  0  0  0  0  0  0  0
    0.6609    0.7732    0.0233 C   0  0  0  0  0  0  0  0  0  0  0  0
   -0.2510    1.6284    0.0280 O   0  5  0  0  0  0  0  0  0  0  0  0
   -5.9703    0.0255   -0.1090 H   0  0  0  0  0  0  0  0  0  0  0  0
   -4.2082    1.8180    0.1764 H   0  0  0  0  0  0  0  0  0  0  0  0
    1.0753   -2.6297   -0.0996 H   0  0  0  0  0  0  0  0  0  0  0  0
    3.6402    0.0459    0.8771 H   0  0  0  0  0  0  0  0  0  0  0  0
    3.7283    0.2316   -0.8745 H   0  0  0  0  0  0  0  0  0  0  0  0
    2.2998    2.0695    0.0236 H   0  0  0  0  0  0  0  0  0  0  0  0
  1  2  3  0  0  0  0
  2  3  1  0  0  0  0
  3  8  2  0  0  0  0
  3  4  1  0  0  0  0
  4  5  2  0  0  0  0
  5  6  1  0  0  0  0
  5 17  1  0  0  0  0
  6  7  2  0  0  0  0
  6 18  1  0  0  0  0
  7  8  1  0  0  0  0
  8  9  1  0  0  0  0
  9 10  1  0  0  0  0
 10 15  1  0  0  0  0
 10 11  2  0  0  0  0
 11 12  1  0  0  0  0
 11 19  1  0  0  0  0
 12 13  1  0  0  0  0
 13 14  1  0  0  0  0
 13 20  1  0  0  0  0
 13 21  1  0  0  0  0
 14 15  2  0  0  0  0
 14 22  1  0  0  0  0
 15 16  1  0  0  0  0
M  CHG  1  16  -1
M  END
$$$$
