
 OpenBabel03202621282D

 14 16  0  0  1  0  0  0  0  0999 V2000
    0.5176   -2.9319    0.0000 O   0  5  0  0  0  0  0  0  0  0  0  0
   -0.4483   -2.6730    0.0000 C   0  0  0  0  0  0  0  0  0  0  0  0
   -1.1554   -3.3801    0.0000 C   0  0  0  0  0  0  0  0  0  0  0  0
   -2.1213   -3.1213    0.0000 O   0  0  0  0  0  0  0  0  0  0  0  0
   -2.3801   -2.1554    0.0000 C   0  0  0  0  0  0  0  0  0  0  0  0
   -1.6730   -1.4483    0.0000 C   0  0  0  0  0  0  0  0  0  0  0  0
   -0.7071   -1.7071    0.0000 C   0  0  3  0  0  0  0  0  0  0  0  0
    0.0000   -1.0000    0.0000 N   0  0  3  0  0  0  0  0  0  0  0  0
    0.0000   -0.0000    0.0000 C   0  0  0  0  0  0  0  0  0  0  0  0
    1.0000    0.0000    0.0000 C   0  0  1  0  0  0  0  0  0  0  0  0
    1.9511    0.3090    0.0000 C   0  0  0  0  0  0  0  0  0  0  0  0
    2.5388   -0.5000    0.0000 O   0  0  0  0  0  0  0  0  0  0  0  0
    1.9511   -1.3090    0.0000 C   0  0  0  0  0  0  0  0  0  0  0  0
    1.0000   -1.0000    0.0000 C   0  0  2  0  0  0  0  0  0  0  0  0
  1  2  1  0  0  0  0
  2  7  1  0  0  0  0
  2  3  2  0  0  0  0
  3  4  1  0  0  0  0
  4  5  1  0  0  0  0
  5  6  1  0  0  0  0
  6  7  1  0  0  0  0
  7  8  1  0  0  0  0
  8 14  1  0  0  0  0
  8  9  1  0  0  0  0
 10  9  1  1  0  0  0
 10 11  1  0  0  0  0
 10 14  1  0  0  0  0
 11 12  1  0  0  0  0
 12 13  1  0  0  0  0
 14 13  1  6  0  0  0
M  CHG  1   1  -1
M  END
$$$$
