
 OpenBabel03202621362D

 59 60  0  0  1  0  0  0  0  0999 V2000
    6.0622    2.5000    0.0000 C   0  0  0  0  0  0  0  0  0  0  0  0
    5.1962    3.0000    0.0000 C   0  0  0  0  0  0  0  0  0  0  0  0
    4.6772    3.7236   -0.8448 O   0  0  0  0  0  0  0  0  0  0  0  0
    4.6190    2.8712    1.4221 C   0  0  0  0  0  0  0  0  0  0  0  0
    4.3148    1.3484    1.4065 C   0  0  0  0  0  0  0  0  0  0  0  0
    4.6234    0.6055    2.3374 O   0  0  0  0  0  0  0  0  0  0  0  0
    3.4641    1.0000    0.0000 C   0  0  2  0  0  0  0  0  0  0  0  0
    2.4174    1.3926    1.3163 O   0  0  0  0  0  0  0  0  0  0  0  0
    3.4641    0.0000    0.0000 C   0  0  0  0  0  0  0  0  0  0  0  0
    4.4496   -0.3759   -0.8258 C   0  0  0  0  0  0  0  0  0  0  0  0
    4.3301   -1.5000    0.0000 C   0  0  0  0  0  0  0  0  0  0  0  0
    3.8301   -2.3660    0.0000 C   0  0  0  0  0  0  0  0  0  0  0  0
    3.3301   -1.5000    0.0000 C   0  0  0  0  0  0  0  0  0  0  0  0
    5.6864   -1.8312    0.5382 N   0  0  0  0  0  0  0  0  0  0  0  0
    6.2948   -3.1050    0.6402 C   0  0  0  0  0  0  0  0  0  0  0  0
    7.6524   -2.9471    0.6268 C   0  0  0  0  0  0  0  0  0  0  0  0
    7.8321   -1.5635    0.5782 C   0  0  0  0  0  0  0  0  0  0  0  0
    6.6874   -0.8800    0.5543 N   0  0  0  0  0  0  0  0  0  0  0  0
    1.5116   -0.0439    0.0543 C   0  0  2  0  0  0  0  0  0  0  0  0
    0.9595   -0.8635    1.4757 C   0  0  0  0  0  0  0  0  0  0  0  0
    1.8583   -1.5892    2.5025 C   0  0  0  0  0  0  0  0  0  0  0  0
    1.6565   -3.0099    2.4343 O   0  0  0  0  0  0  0  0  0  0  0  0
    0.2861    0.9265   -0.1823 C   0  0  0  0  0  0  0  0  0  0  0  0
    0.3715    2.1413   -0.1771 O   0  0  0  0  0  0  0  0  0  0  0  0
   -1.0876    0.2326   -0.2856 C   0  0  0  0  0  0  0  0  0  0  0  0
   -1.2147   -1.1056   -0.7288 C   0  0  0  0  0  0  0  0  0  0  0  0
   -2.4107   -1.8252   -0.5941 C   0  0  0  0  0  0  0  0  0  0  0  0
   -3.5288   -1.1912   -0.0628 C   0  0  0  0  0  0  0  0  0  0  0  0
   -3.4458    0.1388    0.3282 C   0  0  0  0  0  0  0  0  0  0  0  0
   -2.2395    0.8446    0.2260 C   0  0  0  0  0  0  0  0  0  0  0  0
   -2.2554    2.1314    0.6947 O   0  0  0  0  0  0  0  0  0  0  0  0
    6.0425    2.1598   -1.0631 H   0  0  0  0  0  0  0  0  0  0  0  0
    6.7245    3.3968    0.0862 H   0  0  0  0  0  0  0  0  0  0  0  0
    6.9888    1.9650    0.0000 H   0  0  0  0  0  0  0  0  0  0  0  0
    5.3541    3.1168    2.1968 H   0  0  0  0  0  0  0  0  0  0  0  0
    3.7248    3.4842    1.5602 H   0  0  0  0  0  0  0  0  0  0  0  0
    3.4641    2.0700    0.0000 H   0  0  0  0  0  0  0  0  0  0  0  0
    1.9307    2.1959    1.0127 H   0  0  0  0  0  0  0  0  0  0  0  0
    5.3688    0.0926   -1.1408 H   0  0  0  0  0  0  0  0  0  0  0  0
    4.3854   -2.9898   -0.8363 H   0  0  0  0  0  0  0  0  0  0  0  0
    4.0120   -2.8782    1.0780 H   0  0  0  0  0  0  0  0  0  0  0  0
    3.2951   -3.2926    0.0000 H   0  0  0  0  0  0  0  0  0  0  0  0
    3.0640   -1.3536   -1.3933 H   0  0  0  0  0  0  0  0  0  0  0  0
    2.3934   -2.2946   -0.8004 H   0  0  0  0  0  0  0  0  0  0  0  0
    2.2601   -1.5000    0.0000 H   0  0  0  0  0  0  0  0  0  0  0  0
    5.7087   -4.0164    0.6378 H   0  0  0  0  0  0  0  0  0  0  0  0
    8.3958   -3.7319    0.6293 H   0  0  0  0  0  0  0  0  0  0  0  0
    8.7695   -1.0250    0.5409 H   0  0  0  0  0  0  0  0  0  0  0  0
    1.3019   -0.5442   -0.9177 H   0  0  0  0  0  0  0  0  0  0  0  0
    0.3977   -0.1245    2.0611 H   0  0  0  0  0  0  0  0  0  0  0  0
    0.2402   -1.6196    1.1492 H   0  0  0  0  0  0  0  0  0  0  0  0
    1.5406   -1.3236    3.5156 H   0  0  0  0  0  0  0  0  0  0  0  0
    2.9226   -1.3706    2.4574 H   0  0  0  0  0  0  0  0  0  0  0  0
    1.8782   -3.3332    1.5500 H   0  0  0  0  0  0  0  0  0  0  0  0
   -0.3686   -1.6673   -1.1205 H   0  0  0  0  0  0  0  0  0  0  0  0
   -2.4584   -2.8738   -0.8717 H   0  0  0  0  0  0  0  0  0  0  0  0
   -4.4562   -1.7454    0.0562 H   0  0  0  0  0  0  0  0  0  0  0  0
   -4.3242    0.6271    0.7470 H   0  0  0  0  0  0  0  0  0  0  0  0
   -1.3887    2.5452    0.4804 H   0  0  0  0  0  0  0  0  0  0  0  0
  1  2  1  0  0  0  0
  1 32  1  0  0  0  0
  1 33  1  0  0  0  0
  1 34  1  0  0  0  0
  2  3  2  0  0  0  0
  2  4  1  0  0  0  0
  4  5  1  0  0  0  0
  4 35  1  0  0  0  0
  4 36  1  0  0  0  0
  5  6  2  0  0  0  0
  5  7  1  0  0  0  0
  7  8  1  0  0  0  0
  7  9  1  0  0  0  0
  7 37  1  6  0  0  0
  8 38  1  0  0  0  0
  9 10  2  3  0  0  0
  9 19  1  0  0  0  0
 10 11  1  0  0  0  0
 10 39  1  0  0  0  0
 11 12  1  0  0  0  0
 11 13  1  0  0  0  0
 11 14  1  0  0  0  0
 12 40  1  0  0  0  0
 12 41  1  0  0  0  0
 12 42  1  0  0  0  0
 13 43  1  0  0  0  0
 13 44  1  0  0  0  0
 13 45  1  0  0  0  0
 14 18  1  0  0  0  0
 14 15  1  0  0  0  0
 15 16  2  0  0  0  0
 15 46  1  0  0  0  0
 16 17  1  0  0  0  0
 16 47  1  0  0  0  0
 17 18  2  0  0  0  0
 17 48  1  0  0  0  0
 19 20  1  0  0  0  0
 19 23  1  0  0  0  0
 19 49  1  1  0  0  0
 20 21  1  0  0  0  0
 20 50  1  0  0  0  0
 20 51  1  0  0  0  0
 21 22  1  0  0  0  0
 21 52  1  0  0  0  0
 21 53  1  0  0  0  0
 22 54  1  0  0  0  0
 23 24  2  0  0  0  0
 23 25  1  0  0  0  0
 25 30  2  0  0  0  0
 25 26  1  0  0  0  0
 26 27  2  0  0  0  0
 26 55  1  0  0  0  0
 27 28  1  0  0  0  0
 27 56  1  0  0  0  0
 28 29  2  0  0  0  0
 28 57  1  0  0  0  0
 29 30  1  0  0  0  0
 29 58  1  0  0  0  0
 30 31  1  0  0  0  0
 31 59  1  0  0  0  0
M  END
$$$$
