
 OpenBabel03202621372D

 31 31  0  0  1  0  0  0  0  0999 V2000
   -2.5981   -4.5000    0.0000 C   0  0  0  0  0  0  0  0  0  0  0  0
   -1.7321   -5.0000    0.0000 O   0  0  0  0  0  0  0  0  0  0  0  0
   -0.7138   -5.0174   -0.8893 C   0  0  0  0  0  0  0  0  0  0  0  0
   -0.0718   -6.0345   -1.1054 O   0  0  0  0  0  0  0  0  0  0  0  0
   -0.2359   -3.7687   -1.1919 N   0  0  0  0  0  0  0  0  0  0  0  0
    0.8938   -3.3947   -0.3365 C   0  0  0  0  0  0  0  0  0  0  0  0
    1.0625   -1.8737   -0.1872 C   0  0  2  0  0  0  0  0  0  0  0  0
    2.0259   -1.5525    0.8123 O   0  0  0  0  0  0  0  0  0  0  0  0
   -0.2302   -1.1986    0.2028 C   0  0  0  0  0  0  0  0  0  0  0  0
   -0.5393    0.1076    0.0775 C   0  0  0  0  0  0  0  0  0  0  0  0
   -1.9981    0.5123    0.0890 C   0  0  0  0  0  0  0  0  0  0  0  0
   -2.2445    2.0128    0.2383 C   0  0  0  0  0  0  0  0  0  0  0  0
   -1.3404    2.8537   -0.4871 O   0  0  0  0  0  0  0  0  0  0  0  0
   -0.0416    2.4228   -0.4700 C   0  0  0  0  0  0  0  0  0  0  0  0
    0.3870    1.1889   -0.2059 C   0  0  0  0  0  0  0  0  0  0  0  0
    1.7395    0.9391   -0.1421 O   0  0  0  0  0  0  0  0  0  0  0  0
   -2.4441   -3.8725    0.9006 H   0  0  0  0  0  0  0  0  0  0  0  0
   -3.2793   -5.3271    0.2806 H   0  0  0  0  0  0  0  0  0  0  0  0
   -3.5247   -3.9650    0.0000 H   0  0  0  0  0  0  0  0  0  0  0  0
   -0.9653   -3.0816   -1.2122 H   0  0  0  0  0  0  0  0  0  0  0  0
    0.7621   -3.8425    0.6599 H   0  0  0  0  0  0  0  0  0  0  0  0
    1.8074   -3.8472   -0.7423 H   0  0  0  0  0  0  0  0  0  0  0  0
    1.4077   -1.4792   -1.1498 H   0  0  0  0  0  0  0  0  0  0  0  0
    2.8299   -2.0690    0.6149 H   0  0  0  0  0  0  0  0  0  0  0  0
   -1.0385   -1.8640    0.4939 H   0  0  0  0  0  0  0  0  0  0  0  0
   -2.5513   -0.0199    0.8726 H   0  0  0  0  0  0  0  0  0  0  0  0
   -2.4290    0.1950   -0.8712 H   0  0  0  0  0  0  0  0  0  0  0  0
   -3.2498    2.2411   -0.1373 H   0  0  0  0  0  0  0  0  0  0  0  0
   -2.2297    2.3040    1.2950 H   0  0  0  0  0  0  0  0  0  0  0  0
    0.6384    3.2309   -0.7186 H   0  0  0  0  0  0  0  0  0  0  0  0
    1.8778    0.1883    0.4737 H   0  0  0  0  0  0  0  0  0  0  0  0
  1  2  1  0  0  0  0
  1 17  1  0  0  0  0
  1 18  1  0  0  0  0
  1 19  1  0  0  0  0
  2  3  1  0  0  0  0
  3  4  2  0  0  0  0
  3  5  1  0  0  0  0
  5  6  1  0  0  0  0
  5 20  1  0  0  0  0
  6  7  1  0  0  0  0
  6 21  1  0  0  0  0
  6 22  1  0  0  0  0
  7  8  1  0  0  0  0
  7  9  1  0  0  0  0
  7 23  1  6  0  0  0
  8 24  1  0  0  0  0
  9 10  2  3  0  0  0
  9 25  1  0  0  0  0
 10 15  1  0  0  0  0
 10 11  1  0  0  0  0
 11 12  1  0  0  0  0
 11 26  1  0  0  0  0
 11 27  1  0  0  0  0
 12 13  1  0  0  0  0
 12 28  1  0  0  0  0
 12 29  1  0  0  0  0
 13 14  1  0  0  0  0
 14 15  2  0  0  0  0
 14 30  1  0  0  0  0
 15 16  1  0  0  0  0
 16 31  1  0  0  0  0
M  END
$$$$
