
 OpenBabel03202621302D

 20 21  0  0  1  0  0  0  0  0999 V2000
    0.0149    0.0502    0.0000 C   0  0  0  0  0  0  0  0  0  0  0  0
   -0.9511    0.3090    0.0000 C   0  0  1  0  0  0  0  0  0  0  0  0
   -1.7711    0.2294    1.2612 C   0  0  0  0  0  0  0  0  0  0  0  0
   -1.7171    1.5896    0.6618 C   0  0  2  0  0  0  0  0  0  0  0  0
   -0.9090    2.6847    0.0394 C   0  0  0  0  0  0  0  0  0  0  0  0
   -0.7393    2.1909   -1.3309 N   0  0  0  0  0  0  0  0  0  0  0  0
    0.4128    2.5438   -2.0180 C   0  0  0  0  0  0  0  0  0  0  0  0
    0.9690    1.8846   -2.8817 O   0  0  0  0  0  0  0  0  0  0  0  0
   -1.2611    0.8049   -1.4372 C   0  0  0  0  0  0  0  0  0  0  0  0
   -0.1036   -1.0551    0.0789 H   0  0  0  0  0  0  0  0  0  0  0  0
    0.3970    0.4722    0.9612 H   0  0  0  0  0  0  0  0  0  0  0  0
    1.0485   -0.2267    0.0000 H   0  0  0  0  0  0  0  0  0  0  0  0
   -2.7143   -0.3095    1.2194 H   0  0  0  0  0  0  0  0  0  0  0  0
   -1.2965    0.1128    2.2342 H   0  0  0  0  0  0  0  0  0  0  0  0
   -2.7481    1.8495    0.3842 H   0  0  0  0  0  0  0  0  0  0  0  0
   -1.4453    3.6400   -0.0009 H   0  0  0  0  0  0  0  0  0  0  0  0
    0.0576    2.8336    0.5301 H   0  0  0  0  0  0  0  0  0  0  0  0
    0.8015    3.5260   -1.6975 H   0  0  0  0  0  0  0  0  0  0  0  0
   -2.3328    0.8417   -1.6558 H   0  0  0  0  0  0  0  0  0  0  0  0
   -0.7513    0.2424   -2.2325 H   0  0  0  0  0  0  0  0  0  0  0  0
  1 10  1  0  0  0  0
  1 11  1  0  0  0  0
  1 12  1  0  0  0  0
  2  1  1  1  0  0  0
  2  4  1  0  0  0  0
  2  9  1  0  0  0  0
  2  3  1  0  0  0  0
  3 13  1  0  0  0  0
  3 14  1  0  0  0  0
  4  3  1  0  0  0  0
  4  5  1  0  0  0  0
  4 15  1  1  0  0  0
  5  6  1  0  0  0  0
  5 16  1  0  0  0  0
  5 17  1  0  0  0  0
  6  7  1  0  0  0  0
  6  9  1  0  0  0  0
  7  8  2  0  0  0  0
  7 18  1  0  0  0  0
  9 19  1  0  0  0  0
  9 20  1  0  0  0  0
M  END
$$$$
