
 OpenBabel03202621302D

 40 39  0  0  1  0  0  0  0  0999 V2000
   -4.4641    0.0000    0.0000 C   0  0  0  0  0  0  0  0  0  0  0  0
   -3.5981   -0.5000    0.0000 C   0  0  0  0  0  0  0  0  0  0  0  0
   -2.7321    0.0000    0.0000 C   0  0  0  0  0  0  0  0  0  0  0  0
   -2.7321    1.0000    0.0000 C   0  0  0  0  0  0  0  0  0  0  0  0
   -3.7321    1.0000    0.0000 O   0  0  0  0  0  0  0  0  0  0  0  0
   -2.7321    2.0000    0.0000 C   0  0  0  0  0  0  0  0  0  0  0  0
   -3.5981    2.5000    0.0000 C   0  0  0  0  0  0  0  0  0  0  0  0
   -3.5981    3.5000    0.0000 C   0  0  0  0  0  0  0  0  0  0  0  0
   -1.7321    1.0000    0.0000 C   0  0  1  0  0  0  0  0  0  0  0  0
   -1.7321    2.0000    0.0000 C   0  0  0  0  0  0  0  0  0  0  0  0
   -0.7321    1.0000    0.0000 S   0  0  0  0  0  0  0  0  0  0  0  0
   -0.2321    1.8660    0.0000 C   0  0  0  0  0  0  0  0  0  0  0  0
   -1.7321    0.0000    0.0000 C   0  0  0  0  0  0  0  0  0  0  0  0
   -1.7991   -0.5286    1.4855 O   0  0  0  0  0  0  0  0  0  0  0  0
   -0.8660   -0.5000    0.0000 O   0  0  0  0  0  0  0  0  0  0  0  0
    0.0000    0.0000    0.0000 C   0  0  0  0  0  0  0  0  0  0  0  0
   -4.9109   -0.1973   -1.0730 H   0  0  0  0  0  0  0  0  0  0  0  0
   -5.1531   -0.6509    0.6427 H   0  0  0  0  0  0  0  0  0  0  0  0
   -5.3907    0.5350    0.0000 H   0  0  0  0  0  0  0  0  0  0  0  0
   -3.6022   -1.1983    0.8923 H   0  0  0  0  0  0  0  0  0  0  0  0
   -3.8726   -1.4201   -0.6621 H   0  0  0  0  0  0  0  0  0  0  0  0
   -2.3731   -1.3519   -0.5551 H   0  0  0  0  0  0  0  0  0  0  0  0
   -2.8123   -0.0001   -1.4374 H   0  0  0  0  0  0  0  0  0  0  0  0
   -3.9889    1.0575    1.1304 H   0  0  0  0  0  0  0  0  0  0  0  0
   -2.8520    2.2433    1.3632 H   0  0  0  0  0  0  0  0  0  0  0  0
   -2.8557    2.2852   -1.3534 H   0  0  0  0  0  0  0  0  0  0  0  0
   -4.3884    2.3622   -0.9286 H   0  0  0  0  0  0  0  0  0  0  0  0
   -4.4980    2.4520    0.8068 H   0  0  0  0  0  0  0  0  0  0  0  0
   -3.4452    3.8361    1.0849 H   0  0  0  0  0  0  0  0  0  0  0  0
   -4.6734    3.8210   -0.2454 H   0  0  0  0  0  0  0  0  0  0  0  0
   -3.5981    4.5700    0.0000 H   0  0  0  0  0  0  0  0  0  0  0  0
   -1.3575    2.6142   -1.2477 H   0  0  0  0  0  0  0  0  0  0  0  0
   -1.3585    2.6146    1.2477 H   0  0  0  0  0  0  0  0  0  0  0  0
   -1.7321    3.0700    0.0000 H   0  0  0  0  0  0  0  0  0  0  0  0
    0.3930    1.9008    0.9718 H   0  0  0  0  0  0  0  0  0  0  0  0
    0.3939    1.9010   -0.9712 H   0  0  0  0  0  0  0  0  0  0  0  0
    0.3029    2.7926    0.0000 H   0  0  0  0  0  0  0  0  0  0  0  0
    0.5769   -0.6090    0.8426 H   0  0  0  0  0  0  0  0  0  0  0  0
    0.5505   -0.5803   -0.8851 H   0  0  0  0  0  0  0  0  0  0  0  0
    0.9266    0.5350    0.0000 H   0  0  0  0  0  0  0  0  0  0  0  0
  1  2  1  0  0  0  0
  1 17  1  0  0  0  0
  1 18  1  0  0  0  0
  1 19  1  0  0  0  0
  2  3  1  0  0  0  0
  2 20  1  0  0  0  0
  2 21  1  0  0  0  0
  3  4  1  0  0  0  0
  3 22  1  0  0  0  0
  3 23  1  0  0  0  0
  4  5  1  0  0  0  0
  4  6  1  0  0  0  0
  4  9  1  0  0  0  0
  5 24  1  0  0  0  0
  6  7  1  0  0  0  0
  6 25  1  0  0  0  0
  6 26  1  0  0  0  0
  7  8  1  0  0  0  0
  7 27  1  0  0  0  0
  7 28  1  0  0  0  0
  8 29  1  0  0  0  0
  8 30  1  0  0  0  0
  8 31  1  0  0  0  0
  9 10  1  0  0  0  0
  9 11  1  1  0  0  0
  9 13  1  0  0  0  0
 10 32  1  0  0  0  0
 10 33  1  0  0  0  0
 10 34  1  0  0  0  0
 11 12  1  0  0  0  0
 12 35  1  0  0  0  0
 12 36  1  0  0  0  0
 12 37  1  0  0  0  0
 13 14  2  0  0  0  0
 13 15  1  0  0  0  0
 15 16  1  0  0  0  0
 16 38  1  0  0  0  0
 16 39  1  0  0  0  0
 16 40  1  0  0  0  0
M  END
$$$$
