
 OpenBabel03202621282D

 15 16  0  0  0  0  0  0  0  0999 V2000
    7.2438   -0.1201    0.0000 O   0  0  0  0  0  0  0  0  0  0  0  0
    6.2779   -0.3789    0.0000 C   0  0  0  0  0  0  0  0  0  0  0  0
    5.5708    0.3282    0.0000 S   0  0  0  0  0  0  0  0  0  0  0  0
    4.6049    0.0694    0.0000 C   0  0  0  0  0  0  0  0  0  0  0  0
    4.3461   -0.8966    0.0000 C   0  0  0  0  0  0  0  0  0  0  0  0
    3.3801   -1.1554    0.0000 C   0  0  0  0  0  0  0  0  0  0  0  0
    2.6730   -0.4483    0.0000 C   0  0  0  0  0  0  0  0  0  0  0  0
    1.7071   -0.7071    0.0000 O   0  0  0  0  0  0  0  0  0  0  0  0
    1.0000   -0.0000    0.0000 C   0  0  0  0  0  0  0  0  0  0  0  0
    0.0000    0.0000    0.0000 C   0  0  0  0  0  0  0  0  0  0  0  0
    0.0000    1.0000    0.0000 C   0  0  0  0  0  0  0  0  0  0  0  0
   -0.7071    1.7071    0.0000 O   0  0  0  0  0  0  0  0  0  0  0  0
    1.0000    1.0000    0.0000 C   0  0  0  0  0  0  0  0  0  0  0  0
    2.9319    0.5176    0.0000 C   0  0  0  0  0  0  0  0  0  0  0  0
    3.8978    0.7765    0.0000 C   0  0  0  0  0  0  0  0  0  0  0  0
  1  2  2  0  0  0  0
  2  3  1  0  0  0  0
  3  4  1  0  0  0  0
  4 15  2  0  0  0  0
  4  5  1  0  0  0  0
  5  6  2  0  0  0  0
  6  7  1  0  0  0  0
  7  8  1  0  0  0  0
  7 14  2  0  0  0  0
  8  9  1  0  0  0  0
  9 13  1  0  0  0  0
  9 10  1  0  0  0  0
 10 11  1  0  0  0  0
 11 12  2  0  0  0  0
 11 13  1  0  0  0  0
 14 15  1  0  0  0  0
M  END
$$$$
