
 OpenBabel03202621352D

 29 29  0  0  0  0  0  0  0  0999 V2000
    3.4641    1.0000    0.0000 C   0  0  0  0  0  0  0  0  0  0  0  0
    2.5981    1.5000    0.0000 O   0  0  0  0  0  0  0  0  0  0  0  0
    2.1255    1.9446    1.2072 C   0  0  0  0  0  0  0  0  0  0  0  0
    2.8385    2.2675    2.1581 O   0  0  0  0  0  0  0  0  0  0  0  0
    0.6256    1.8982    1.3352 C   0  0  0  0  0  0  0  0  0  0  0  0
   -0.2822    1.2888    0.2827 C   0  0  0  0  0  0  0  0  0  0  0  0
    0.1076    0.2879   -0.6147 C   0  0  0  0  0  0  0  0  0  0  0  0
   -0.8228   -0.6257   -1.0867 C   0  0  0  0  0  0  0  0  0  0  0  0
   -2.1076   -0.5845   -0.5983 C   0  0  0  0  0  0  0  0  0  0  0  0
   -2.9271   -1.7220   -0.5221 N   0  0  0  0  0  0  0  0  0  0  0  0
   -2.5673   -2.9895   -0.0922 C   0  0  0  0  0  0  0  0  0  0  0  0
   -3.8620   -3.9594    0.4104 S   0  0  0  0  0  0  0  0  0  0  0  0
   -0.8660   -3.5000    0.0000 S   0  0  0  0  0  0  0  0  0  0  0  0
   -0.8660   -4.5000    0.0000 C   0  0  0  0  0  0  0  0  0  0  0  0
   -2.5800    0.5729    0.0223 C   0  0  0  0  0  0  0  0  0  0  0  0
   -1.6558    1.5141    0.4631 C   0  0  0  0  0  0  0  0  0  0  0  0
    3.2949    0.1850    0.7402 H   0  0  0  0  0  0  0  0  0  0  0  0
    4.1990    1.7883    0.2704 H   0  0  0  0  0  0  0  0  0  0  0  0
    4.3907    0.4650    0.0000 H   0  0  0  0  0  0  0  0  0  0  0  0
    0.4686    1.2488    2.2097 H   0  0  0  0  0  0  0  0  0  0  0  0
    0.2821    2.9023    1.5925 H   0  0  0  0  0  0  0  0  0  0  0  0
    1.1349    0.0853   -0.8781 H   0  0  0  0  0  0  0  0  0  0  0  0
   -0.4811   -1.4352   -1.7234 H   0  0  0  0  0  0  0  0  0  0  0  0
   -3.9015   -1.5421   -0.2945 H   0  0  0  0  0  0  0  0  0  0  0  0
   -0.8333   -4.6810   -1.0944 H   0  0  0  0  0  0  0  0  0  0  0  0
    0.1543   -4.6706    0.3935 H   0  0  0  0  0  0  0  0  0  0  0  0
   -0.8660   -5.5700    0.0000 H   0  0  0  0  0  0  0  0  0  0  0  0
   -3.6173    0.6804    0.3224 H   0  0  0  0  0  0  0  0  0  0  0  0
   -2.0034    2.3319    1.0919 H   0  0  0  0  0  0  0  0  0  0  0  0
  1  2  1  0  0  0  0
  1 17  1  0  0  0  0
  1 18  1  0  0  0  0
  1 19  1  0  0  0  0
  2  3  1  0  0  0  0
  3  4  2  0  0  0  0
  3  5  1  0  0  0  0
  5  6  1  0  0  0  0
  5 20  1  0  0  0  0
  5 21  1  0  0  0  0
  6 16  2  0  0  0  0
  6  7  1  0  0  0  0
  7  8  2  0  0  0  0
  7 22  1  0  0  0  0
  8  9  1  0  0  0  0
  8 23  1  0  0  0  0
  9 10  1  0  0  0  0
  9 15  2  0  0  0  0
 10 11  1  0  0  0  0
 10 24  1  0  0  0  0
 11 12  2  0  0  0  0
 11 13  1  0  0  0  0
 13 14  1  0  0  0  0
 14 25  1  0  0  0  0
 14 26  1  0  0  0  0
 14 27  1  0  0  0  0
 15 16  1  0  0  0  0
 15 28  1  0  0  0  0
 16 29  1  0  0  0  0
M  END
$$$$
