
 OpenBabel03202621342D

 20 20  0  0  1  0  0  0  0  0999 V2000
   -2.9183   -3.5744   -0.7098 N   0  0  0  0  0  0  0  0  0  0  0  0
   -1.8788   -3.2169   -0.3402 C   0  0  0  0  0  0  0  0  0  0  0  0
   -0.6125   -2.8803    0.2218 C   0  0  0  0  0  0  0  0  0  0  0  0
    0.2780   -4.1969    0.9333 Cl  0  0  0  0  0  0  0  0  0  0  0  0
   -0.1123   -1.6380    0.3045 C   0  0  0  0  0  0  0  0  0  0  0  0
   -0.6960   -0.3405   -0.2291 C   0  0  3  0  0  0  0  0  0  0  0  0
   -1.4331   -0.6011   -1.4311 O   0  0  0  0  0  0  0  0  0  0  0  0
   -1.6995    0.2001    0.7968 C   0  0  0  0  0  0  0  0  0  0  0  0
   -2.0139    1.6396    0.4435 C   0  0  0  0  0  0  0  0  0  0  0  0
   -0.8559    2.4648    0.5819 O   0  0  0  0  0  0  0  0  0  0  0  0
    0.2283    1.9670   -0.0912 C   0  0  0  0  0  0  0  0  0  0  0  0
    0.3904    0.7170   -0.5721 C   0  0  0  0  0  0  0  0  0  0  0  0
    1.3262    0.2760   -1.2988 O   0  5  0  0  0  0  0  0  0  0  0  0
    0.8483   -1.5010    0.7964 H   0  0  0  0  0  0  0  0  0  0  0  0
   -0.9364   -0.0727   -2.0887 H   0  0  0  0  0  0  0  0  0  0  0  0
   -1.2809    0.1591    1.8104 H   0  0  0  0  0  0  0  0  0  0  0  0
   -2.6267   -0.3847    0.7814 H   0  0  0  0  0  0  0  0  0  0  0  0
   -2.4127    1.7379   -0.5752 H   0  0  0  0  0  0  0  0  0  0  0  0
   -2.7773    2.0303    1.1233 H   0  0  0  0  0  0  0  0  0  0  0  0
    0.9774    2.7363   -0.2289 H   0  0  0  0  0  0  0  0  0  0  0  0
  1  2  3  0  0  0  0
  2  3  1  0  0  0  0
  3  4  1  0  0  0  0
  3  5  2  3  0  0  0
  5  6  1  0  0  0  0
  5 14  1  0  0  0  0
  6 12  1  0  0  0  0
  6  7  1  0  0  0  0
  6  8  1  0  0  0  0
  7 15  1  0  0  0  0
  8  9  1  0  0  0  0
  8 16  1  0  0  0  0
  8 17  1  0  0  0  0
  9 10  1  0  0  0  0
  9 18  1  0  0  0  0
  9 19  1  0  0  0  0
 10 11  1  0  0  0  0
 11 12  2  0  0  0  0
 11 20  1  0  0  0  0
 12 13  1  0  0  0  0
M  CHG  1  13  -1
M  END
$$$$
