
 OpenBabel03202621382D

 22 21  0  0  1  0  0  0  0  0999 V2000
   -0.8660   -1.5000    0.0000 C   0  0  0  0  0  0  0  0  0  0  0  0
    0.0000   -2.0000    0.0000 C   0  0  0  0  0  0  0  0  0  0  0  0
    0.4585   -1.2383    1.3899 C   0  0  2  0  0  0  0  0  0  0  0  0
    1.6310   -1.8949    1.8995 N   0  0  0  0  0  0  0  0  0  0  0  0
    2.7399   -1.8377    1.1075 C   0  0  0  0  0  0  0  0  0  0  0  0
    3.9349   -2.9890    1.1990 S   0  0  0  0  0  0  0  0  0  0  0  0
    2.5981   -0.5000    0.0000 S   0  0  0  0  0  0  0  0  0  0  0  0
    3.4641    0.0000    0.0000 C   0  0  0  0  0  0  0  0  0  0  0  0
   -0.2162   -0.1815    2.3783 C   0  0  0  0  0  0  0  0  0  0  0  0
    0.2955    0.2408    3.3950 O   0  0  0  0  0  0  0  0  0  0  0  0
   -1.1723    0.5587    1.7592 O   0  0  0  0  0  0  0  0  0  0  0  0
   -0.6738   -0.7885   -0.8448 H   0  0  0  0  0  0  0  0  0  0  0  0
   -1.5278   -2.2921   -0.4304 H   0  0  0  0  0  0  0  0  0  0  0  0
   -1.7926   -0.9650    0.0000 H   0  0  0  0  0  0  0  0  0  0  0  0
    0.0110   -3.0619    0.3096 H   0  0  0  0  0  0  0  0  0  0  0  0
    0.7292   -2.0129   -0.8191 H   0  0  0  0  0  0  0  0  0  0  0  0
    0.7352   -0.2989    0.9078 H   0  0  0  0  0  0  0  0  0  0  0  0
    1.5345   -2.6957    2.5116 H   0  0  0  0  0  0  0  0  0  0  0  0
    3.9051   -0.4071   -0.9322 H   0  0  0  0  0  0  0  0  0  0  0  0
    3.0773    1.0115   -0.2285 H   0  0  0  0  0  0  0  0  0  0  0  0
    4.3907    0.5350    0.0000 H   0  0  0  0  0  0  0  0  0  0  0  0
   -1.0846    1.4618    2.1226 H   0  0  0  0  0  0  0  0  0  0  0  0
  1  2  1  0  0  0  0
  1 12  1  0  0  0  0
  1 13  1  0  0  0  0
  1 14  1  0  0  0  0
  2 15  1  0  0  0  0
  2 16  1  0  0  0  0
  3  2  1  0  0  0  0
  3  4  1  0  0  0  0
  3  9  1  0  0  0  0
  3 17  1  6  0  0  0
  4  5  1  0  0  0  0
  4 18  1  0  0  0  0
  5  6  2  0  0  0  0
  5  7  1  0  0  0  0
  7  8  1  0  0  0  0
  8 19  1  0  0  0  0
  8 20  1  0  0  0  0
  8 21  1  0  0  0  0
  9 10  2  0  0  0  0
  9 11  1  0  0  0  0
 11 22  1  0  0  0  0
M  END
$$$$
