
 OpenBabel03202621282D

 26 29  0  0  1  0  0  0  0  0999 V2000
    4.6711    2.0173    0.0000 O   0  0  0  0  0  0  0  0  0  0  0  0
    4.5666    1.0228    0.0000 C   0  0  0  0  0  0  0  0  0  0  0  0
    5.3756    0.4350    0.0000 C   0  0  0  0  0  0  0  0  0  0  0  0
    5.2711   -0.5595    0.0000 C   0  0  0  0  0  0  0  0  0  0  0  0
    4.3575   -0.9663    0.0000 O   0  0  0  0  0  0  0  0  0  0  0  0
    3.5485   -0.3785    0.0000 C   0  0  0  0  0  0  0  0  0  0  0  0
    3.6530    0.6161    0.0000 C   0  0  0  0  0  0  0  0  0  0  0  0
    2.8440    1.2038    0.0000 O   0  0  0  0  0  0  0  0  0  0  0  0
    1.9305    0.7971    0.0000 C   0  0  1  0  0  0  0  0  0  0  0  0
    1.8259   -0.1974    0.0000 C   0  0  0  0  0  0  0  0  0  0  0  0
    2.6350   -0.7852    0.0000 O   0  0  0  0  0  0  0  0  0  0  0  0
    1.1215    1.3849    0.0000 C   0  0  0  0  0  0  0  0  0  0  0  0
    0.2079    0.9781    0.0000 N   0  0  0  0  0  0  0  0  0  0  0  0
   -0.6581    1.4781    0.0000 C   0  0  0  0  0  0  0  0  0  0  0  0
   -1.4013    0.8090    0.0000 C   0  0  0  0  0  0  0  0  0  0  0  0
   -2.3794    1.0169    0.0000 C   0  0  0  0  0  0  0  0  0  0  0  0
   -2.7861    1.9305    0.0000 C   0  0  0  0  0  0  0  0  0  0  0  0
   -3.7807    1.8259    0.0000 N   0  0  0  0  0  0  0  0  0  0  0  0
   -3.9886    0.8478    0.0000 C   0  0  0  0  0  0  0  0  0  0  0  0
   -4.8546    0.3478    0.0000 C   0  0  0  0  0  0  0  0  0  0  0  0
   -4.8546   -0.6522    0.0000 C   0  0  0  0  0  0  0  0  0  0  0  0
   -3.9886   -1.1522    0.0000 C   0  0  0  0  0  0  0  0  0  0  0  0
   -3.1226   -0.6522    0.0000 N   0  0  0  0  0  0  0  0  0  0  0  0
   -3.1226    0.3478    0.0000 N   0  0  0  0  0  0  0  0  0  0  0  0
   -0.9945   -0.1045    0.0000 N   0  0  0  0  0  0  0  0  0  0  0  0
    0.0000    0.0000    0.0000 N   0  0  0  0  0  0  0  0  0  0  0  0
  1  2  2  0  0  0  0
  2  7  1  0  0  0  0
  2  3  1  0  0  0  0
  3  4  1  0  0  0  0
  4  5  1  0  0  0  0
  5  6  1  0  0  0  0
  6  7  2  0  0  0  0
  7  8  1  0  0  0  0
  8  9  1  0  0  0  0
  9 10  1  1  0  0  0
  9 12  1  0  0  0  0
 10 11  1  0  0  0  0
 12 13  1  0  0  0  0
 13 26  1  0  0  0  0
 13 14  1  0  0  0  0
 14 15  2  0  0  0  0
 15 16  1  0  0  0  0
 15 25  1  0  0  0  0
 16 24  1  0  0  0  0
 16 17  2  0  0  0  0
 17 18  1  0  0  0  0
 18 19  2  0  0  0  0
 19 24  1  0  0  0  0
 19 20  1  0  0  0  0
 20 21  2  0  0  0  0
 21 22  1  0  0  0  0
 22 23  2  0  0  0  0
 23 24  1  0  0  0  0
 25 26  2  0  0  0  0
M  END
$$$$
