
 OpenBabel03202621282D

 41 44  0  0  1  0  0  0  0  0999 V2000
   10.5263   -1.5000    0.0000 C   0  0  0  0  0  0  0  0  0  0  0  0
    9.6603   -1.0000    0.0000 C   0  0  0  0  0  0  0  0  0  0  0  0
    9.6603   -0.0000    0.0000 O   0  0  0  0  0  0  0  0  0  0  0  0
    8.7942   -1.5000    0.0000 C   0  0  0  0  0  0  0  0  0  0  0  0
    7.9282   -1.0000    0.0000 C   0  0  0  0  0  0  0  0  0  0  0  0
    7.9282   -0.0000    0.0000 O   0  0  0  0  0  0  0  0  0  0  0  0
    7.0622   -1.5000    0.0000 C   0  0  2  0  0  0  0  0  0  0  0  0
    6.1962   -1.0000    0.0000 O   0  0  0  0  0  0  0  0  0  0  0  0
    5.3301   -1.5000    0.0000 C   0  0  0  0  0  0  0  0  0  0  0  0
    4.4641   -1.0000    0.0000 C   0  0  1  0  0  0  0  0  0  0  0  0
    4.4641   -0.0000    0.0000 O   0  0  0  0  0  0  0  0  0  0  0  0
    3.5981   -1.5000    0.0000 C   0  0  0  0  0  0  0  0  0  0  0  0
    2.7321   -1.0000    0.0000 N   0  0  0  0  0  0  0  0  0  0  0  0
    2.7321    0.0000    0.0000 C   0  0  0  0  0  0  0  0  0  0  0  0
    3.5981    0.5000    0.0000 O   0  0  0  0  0  0  0  0  0  0  0  0
    1.8660    0.5000    0.0000 C   0  0  1  0  0  0  0  0  0  0  0  0
    1.0000    1.0000    0.0000 C   0  0  0  0  0  0  0  0  0  0  0  0
    0.1340    1.5000    0.0000 C   0  0  0  0  0  0  0  0  0  0  0  0
    1.0000    2.0000    0.0000 C   0  0  0  0  0  0  0  0  0  0  0  0
    1.0000   -0.0000    0.0000 C   0  0  1  0  0  0  0  0  0  0  0  0
    0.0000   -0.0000    0.0000 C   0  0  0  0  0  0  0  0  0  0  0  0
   -0.0000   -1.0000    0.0000 C   0  0  0  0  0  0  0  0  0  0  0  0
    1.0000   -1.0000    0.0000 C   0  0  1  0  0  0  0  0  0  0  0  0
    1.2588   -1.9659    0.0000 C   0  0  0  0  0  0  0  0  0  0  0  0
    1.8660   -1.5000    0.0000 C   0  0  0  0  0  0  0  0  0  0  0  0
    1.8660   -2.5000    0.0000 O   0  0  0  0  0  0  0  0  0  0  0  0
    7.0622   -2.5000    0.0000 C   0  0  0  0  0  0  0  0  0  0  0  0
    7.9282   -3.0000    0.0000 O   0  0  0  0  0  0  0  0  0  0  0  0
    6.1962   -3.0000    0.0000 C   0  0  2  0  0  0  0  0  0  0  0  0
    5.3301   -2.5000    0.0000 C   0  0  0  0  0  0  0  0  0  0  0  0
    4.4641   -3.0000    0.0000 C   0  0  0  0  0  0  0  0  0  0  0  0
    4.4641   -4.0000    0.0000 O   0  0  0  0  0  0  0  0  0  0  0  0
    6.1962   -4.0000    0.0000 C   0  0  0  0  0  0  0  0  0  0  0  0
    5.3301   -4.5000    0.0000 O   0  0  0  0  0  0  0  0  0  0  0  0
    7.0622   -4.5000    0.0000 C   0  0  0  0  0  0  0  0  0  0  0  0
    7.9282   -4.0000    0.0000 C   0  0  0  0  0  0  0  0  0  0  0  0
    8.7942   -4.5000    0.0000 C   0  0  0  0  0  0  0  0  0  0  0  0
    8.7942   -5.5000    0.0000 C   0  0  0  0  0  0  0  0  0  0  0  0
    7.9282   -6.0000    0.0000 C   0  0  0  0  0  0  0  0  0  0  0  0
    7.0622   -5.5000    0.0000 C   0  0  0  0  0  0  0  0  0  0  0  0
    6.1962   -6.0000    0.0000 O   0  5  0  0  0  0  0  0  0  0  0  0
  1  2  1  0  0  0  0
  2  3  2  0  0  0  0
  2  4  1  0  0  0  0
  4  5  1  0  0  0  0
  5  6  2  0  0  0  0
  7  5  1  1  0  0  0
  7  8  1  0  0  0  0
  7 27  1  0  0  0  0
  8  9  1  0  0  0  0
  9 10  1  0  0  0  0
 10 11  1  6  0  0  0
 10 12  1  0  0  0  0
 12 13  1  0  0  0  0
 13 25  1  0  0  0  0
 13 14  1  0  0  0  0
 14 15  2  0  0  0  0
 16 14  1  6  0  0  0
 16 17  1  0  0  0  0
 16 20  1  0  0  0  0
 17 18  1  0  0  0  0
 17 19  1  0  0  0  0
 17 20  1  0  0  0  0
 20 23  1  0  0  0  0
 20 21  1  6  0  0  0
 21 22  1  0  0  0  0
 22 23  1  0  0  0  0
 23 24  1  6  0  0  0
 23 25  1  0  0  0  0
 25 26  2  0  0  0  0
 27 28  2  0  0  0  0
 27 29  1  0  0  0  0
 29 30  1  1  0  0  0
 29 33  1  0  0  0  0
 30 31  1  0  0  0  0
 31 32  1  0  0  0  0
 33 34  2  0  0  0  0
 33 35  1  0  0  0  0
 35 40  2  0  0  0  0
 35 36  1  0  0  0  0
 36 37  2  0  0  0  0
 37 38  1  0  0  0  0
 38 39  2  0  0  0  0
 39 40  1  0  0  0  0
 40 41  1  0  0  0  0
M  CHG  1  41  -1
M  END
$$$$
