
 OpenBabel03202621402D

 33 33  0  0  1  0  0  0  0  0999 V2000
    3.4641    0.0000    0.0000 C   0  0  0  0  0  0  0  0  0  0  0  0
    2.5981   -0.5000    0.0000 C   0  0  1  0  0  0  0  0  0  0  0  0
    1.0346    0.1060    0.0645 C   0  0  0  0  0  0  0  0  0  0  0  0
   -0.1933   -0.4331    0.1791 C   0  0  0  0  0  0  0  0  0  0  0  0
   -0.4626   -1.9159    0.1403 C   0  0  0  0  0  0  0  0  0  0  0  0
   -1.9195   -2.3594    0.0401 C   0  0  0  0  0  0  0  0  0  0  0  0
   -2.8768   -1.4034   -0.4046 O   0  0  0  0  0  0  0  0  0  0  0  0
   -2.5887   -0.1055   -0.1087 C   0  0  0  0  0  0  0  0  0  0  0  0
   -1.3926    0.4045    0.1976 C   0  0  0  0  0  0  0  0  0  0  0  0
   -1.2835    1.7413    0.5064 O   0  0  0  0  0  0  0  0  0  0  0  0
    2.5981   -1.5000    0.0000 C   0  0  0  0  0  0  0  0  0  0  0  0
    3.4641   -2.0000    0.0000 N   0  0  0  0  0  0  0  0  0  0  0  0
    3.4641   -3.0000    0.0000 C   0  0  0  0  0  0  0  0  0  0  0  0
    4.3301   -1.5000    0.0000 C   0  0  0  0  0  0  0  0  0  0  0  0
    3.6557    0.3946   -1.1025 H   0  0  0  0  0  0  0  0  0  0  0  0
    3.6548    0.4027    1.1010 H   0  0  0  0  0  0  0  0  0  0  0  0
    4.3907    0.5350    0.0000 H   0  0  0  0  0  0  0  0  0  0  0  0
    2.5981    0.5700    0.0000 H   0  0  0  0  0  0  0  0  0  0  0  0
    1.0178    1.2047   -0.0503 H   0  0  0  0  0  0  0  0  0  0  0  0
    0.0394   -2.3436   -0.7325 H   0  0  0  0  0  0  0  0  0  0  0  0
   -0.0309   -2.4014    1.0249 H   0  0  0  0  0  0  0  0  0  0  0  0
   -1.9719   -3.2068   -0.6526 H   0  0  0  0  0  0  0  0  0  0  0  0
   -2.2475   -2.7453    1.0127 H   0  0  0  0  0  0  0  0  0  0  0  0
   -3.4705    0.5167   -0.1791 H   0  0  0  0  0  0  0  0  0  0  0  0
   -0.4634    1.8896    1.0041 H   0  0  0  0  0  0  0  0  0  0  0  0
    1.9561   -1.7925   -0.8794 H   0  0  0  0  0  0  0  0  0  0  0  0
    1.9643   -1.7827    0.8898 H   0  0  0  0  0  0  0  0  0  0  0  0
    2.4050   -3.4203    0.1445 H   0  0  0  0  0  0  0  0  0  0  0  0
    4.0253   -3.3281    0.9355 H   0  0  0  0  0  0  0  0  0  0  0  0
    3.4641   -4.0700    0.0000 H   0  0  0  0  0  0  0  0  0  0  0  0
    4.9407   -1.9398   -0.8611 H   0  0  0  0  0  0  0  0  0  0  0  0
    4.8030   -1.6825    1.0286 H   0  0  0  0  0  0  0  0  0  0  0  0
    5.2567   -0.9650    0.0000 H   0  0  0  0  0  0  0  0  0  0  0  0
  1 15  1  0  0  0  0
  1 16  1  0  0  0  0
  1 17  1  0  0  0  0
  2  1  1  0  0  0  0
  2  3  1  0  0  0  0
  2 11  1  0  0  0  0
  2 18  1  1  0  0  0
  3  4  2  3  0  0  0
  3 19  1  0  0  0  0
  4  9  1  0  0  0  0
  4  5  1  0  0  0  0
  5  6  1  0  0  0  0
  5 20  1  0  0  0  0
  5 21  1  0  0  0  0
  6  7  1  0  0  0  0
  6 22  1  0  0  0  0
  6 23  1  0  0  0  0
  7  8  1  0  0  0  0
  8  9  2  0  0  0  0
  8 24  1  0  0  0  0
  9 10  1  0  0  0  0
 10 25  1  0  0  0  0
 11 12  1  0  0  0  0
 11 26  1  0  0  0  0
 11 27  1  0  0  0  0
 12 13  1  0  0  0  0
 12 14  1  0  0  0  0
 13 28  1  0  0  0  0
 13 29  1  0  0  0  0
 13 30  1  0  0  0  0
 14 31  1  0  0  0  0
 14 32  1  0  0  0  0
 14 33  1  0  0  0  0
M  END
$$$$
