
 OpenBabel03202621352D

 32 33  0  0  1  0  0  0  0  0999 V2000
    1.4884    2.3812    0.5687 N   0  0  0  0  0  0  0  0  0  0  0  0
    1.4799    1.0937   -0.1401 C   0  0  2  0  0  0  0  0  0  0  0  0
    2.6368    0.2312    0.3460 C   0  0  0  0  0  0  0  0  0  0  0  0
    2.5428   -1.1492   -0.2812 C   0  0  2  0  0  0  0  0  0  0  0  0
    3.5150   -1.9352    0.2684 F   0  0  0  0  0  0  0  0  0  0  0  0
    1.1788   -1.8036   -0.0172 C   0  0  0  0  0  0  0  0  0  0  0  0
    0.0206   -0.9910   -0.4442 N   0  0  3  0  0  0  0  0  0  0  0  0
   -1.2825   -1.5971   -0.0094 C   0  0  3  0  0  0  0  0  0  0  0  0
   -1.5045   -3.0928   -0.3390 C   0  0  0  0  0  0  0  0  0  0  0  0
   -2.8461   -3.4306   -0.7168 O   0  0  0  0  0  0  0  0  0  0  0  0
   -3.8367   -2.8349    0.1111 C   0  0  0  0  0  0  0  0  0  0  0  0
   -3.8341   -1.3248   -0.0260 C   0  0  0  0  0  0  0  0  0  0  0  0
   -2.5116   -0.8614   -0.5673 C   0  0  0  0  0  0  0  0  0  0  0  0
   -2.4695    0.0974   -1.3473 O   0  0  0  0  0  0  0  0  0  0  0  0
    0.1265    0.3861    0.0962 C   0  0  0  0  0  0  0  0  0  0  0  0
    2.2752    2.9455    0.2429 H   0  0  0  0  0  0  0  0  0  0  0  0
    0.6475    2.9056    0.3306 H   0  0  0  0  0  0  0  0  0  0  0  0
    1.5971    1.2874   -1.2138 H   0  0  0  0  0  0  0  0  0  0  0  0
    3.6017    0.6872    0.0937 H   0  0  0  0  0  0  0  0  0  0  0  0
    2.6241    0.1337    1.4400 H   0  0  0  0  0  0  0  0  0  0  0  0
    2.7404   -1.0936   -1.3575 H   0  0  0  0  0  0  0  0  0  0  0  0
    1.1821   -2.7616   -0.5477 H   0  0  0  0  0  0  0  0  0  0  0  0
    1.1061   -2.0441    1.0536 H   0  0  0  0  0  0  0  0  0  0  0  0
   -1.3499   -1.4944    1.0827 H   0  0  0  0  0  0  0  0  0  0  0  0
   -1.2267   -3.7058    0.5279 H   0  0  0  0  0  0  0  0  0  0  0  0
   -0.8698   -3.4164   -1.1704 H   0  0  0  0  0  0  0  0  0  0  0  0
   -3.6823   -3.1442    1.1506 H   0  0  0  0  0  0  0  0  0  0  0  0
   -4.8132   -3.2263   -0.1970 H   0  0  0  0  0  0  0  0  0  0  0  0
   -4.6211   -1.0086   -0.7232 H   0  0  0  0  0  0  0  0  0  0  0  0
   -4.0289   -0.8433    0.9360 H   0  0  0  0  0  0  0  0  0  0  0  0
   -0.6265    1.0270   -0.3719 H   0  0  0  0  0  0  0  0  0  0  0  0
   -0.0859    0.3764    1.1727 H   0  0  0  0  0  0  0  0  0  0  0  0
  1 16  1  0  0  0  0
  1 17  1  0  0  0  0
  2  1  1  0  0  0  0
  2  3  1  0  0  0  0
  2 15  1  0  0  0  0
  2 18  1  1  0  0  0
  3  4  1  0  0  0  0
  3 19  1  0  0  0  0
  3 20  1  0  0  0  0
  4  5  1  0  0  0  0
  4  6  1  0  0  0  0
  4 21  1  1  0  0  0
  6  7  1  0  0  0  0
  6 22  1  0  0  0  0
  6 23  1  0  0  0  0
  7  8  1  0  0  0  0
  7 15  1  0  0  0  0
  8 13  1  0  0  0  0
  8  9  1  0  0  0  0
  8 24  1  0  0  0  0
  9 10  1  0  0  0  0
  9 25  1  0  0  0  0
  9 26  1  0  0  0  0
 10 11  1  0  0  0  0
 11 12  1  0  0  0  0
 11 27  1  0  0  0  0
 11 28  1  0  0  0  0
 12 13  1  0  0  0  0
 12 29  1  0  0  0  0
 12 30  1  0  0  0  0
 13 14  2  0  0  0  0
 15 31  1  0  0  0  0
 15 32  1  0  0  0  0
M  END
$$$$
