
 OpenBabel03202621322D

 30 32  0  0  0  0  0  0  0  0999 V2000
    1.7213    0.4612    0.0000 C   0  0  0  0  0  0  0  0  0  0  0  0
    0.9781   -0.2079    0.0000 C   0  0  0  0  0  0  0  0  0  0  0  0
    1.3842   -1.5431   -0.0000 C   0  0  0  0  0  0  0  0  0  0  0  0
    0.2796   -2.2695    0.0000 N   0  0  0  0  0  0  0  0  0  0  0  0
    0.2225   -3.6433   -0.0000 C   0  0  0  0  0  0  0  0  0  0  0  0
    1.2199   -4.4970   -0.0000 N   0  0  0  0  0  0  0  0  0  0  0  0
    0.6529   -5.7529    0.0000 N   0  0  0  0  0  0  0  0  0  0  0  0
   -0.6563   -5.5920    0.0000 C   0  0  0  0  0  0  0  0  0  0  0  0
   -0.9611   -4.2677   -0.0000 N   0  0  0  0  0  0  0  0  0  0  0  0
   -2.0453   -3.5290    0.0000 N   0  0  0  0  0  0  0  0  0  0  0  0
   -3.2396   -3.9387    0.0000 C   0  0  0  0  0  0  0  0  0  0  0  0
   -4.2674   -2.8860   -0.0000 C   0  0  0  0  0  0  0  0  0  0  0  0
   -5.5579   -3.3627   -0.0000 C   0  0  0  0  0  0  0  0  0  0  0  0
   -6.6109   -2.4596   -0.0000 C   0  0  0  0  0  0  0  0  0  0  0  0
   -6.3706   -1.0824   -0.0000 C   0  0  0  0  0  0  0  0  0  0  0  0
   -5.0706   -0.5930   -0.0000 C   0  0  0  0  0  0  0  0  0  0  0  0
   -4.0111   -1.4978   -0.0000 C   0  0  0  0  0  0  0  0  0  0  0  0
   -0.7729   -1.4367   -0.0000 N   0  0  0  0  0  0  0  0  0  0  0  0
   -0.3654   -0.1712   -0.0000 N   0  0  0  0  0  0  0  0  0  0  0  0
    2.7276    0.0003   -0.0000 H   0  0  0  0  0  0  0  0  0  0  0  0
    1.2435    1.4532   -0.0000 H   0  0  0  0  0  0  0  0  0  0  0  0
    2.5165    1.1771    0.0000 H   0  0  0  0  0  0  0  0  0  0  0  0
    2.3740   -2.0071   -0.0000 H   0  0  0  0  0  0  0  0  0  0  0  0
   -1.3887   -6.3795    0.0000 H   0  0  0  0  0  0  0  0  0  0  0  0
   -3.5143   -4.9985    0.0000 H   0  0  0  0  0  0  0  0  0  0  0  0
   -5.7377   -4.4310    0.0000 H   0  0  0  0  0  0  0  0  0  0  0  0
   -7.6222   -2.8446    0.0000 H   0  0  0  0  0  0  0  0  0  0  0  0
   -7.2058   -0.3897   -0.0000 H   0  0  0  0  0  0  0  0  0  0  0  0
   -4.8786    0.4791   -0.0000 H   0  0  0  0  0  0  0  0  0  0  0  0
   -3.0112   -1.0812    0.0000 H   0  0  0  0  0  0  0  0  0  0  0  0
  1  2  1  0  0  0  0
  1 20  1  0  0  0  0
  1 21  1  0  0  0  0
  1 22  1  0  0  0  0
  2 19  1  0  0  0  0
  2  3  2  0  0  0  0
  3  4  1  0  0  0  0
  3 23  1  0  0  0  0
  4  5  1  0  0  0  0
  4 18  1  0  0  0  0
  5  9  1  0  0  0  0
  5  6  2  0  0  0  0
  6  7  1  0  0  0  0
  7  8  2  0  0  0  0
  8  9  1  0  0  0  0
  8 24  1  0  0  0  0
  9 10  1  0  0  0  0
 10 11  2  3  0  0  0
 11 12  1  0  0  0  0
 11 25  1  0  0  0  0
 12 17  2  0  0  0  0
 12 13  1  0  0  0  0
 13 14  2  0  0  0  0
 13 26  1  0  0  0  0
 14 15  1  0  0  0  0
 14 27  1  0  0  0  0
 15 16  2  0  0  0  0
 15 28  1  0  0  0  0
 16 17  1  0  0  0  0
 16 29  1  0  0  0  0
 17 30  1  0  0  0  0
 18 19  2  0  0  0  0
M  END
$$$$
