
 OpenBabel03202621312D

 34 34  0  0  0  0  0  0  0  0999 V2000
   -1.0000    0.7321    0.0000 C   0  0  0  0  0  0  0  0  0  0  0  0
   -1.5000   -0.1340    0.0000 C   0  0  0  0  0  0  0  0  0  0  0  0
   -1.0000   -1.0000    0.0000 O   0  0  0  0  0  0  0  0  0  0  0  0
    0.0000   -1.0000    0.0000 P   0  0  0  0  0  0  0  0  0  0  0  0
    0.0000   -2.0000    0.0000 O   0  0  0  0  0  0  0  0  0  0  0  0
    1.0000   -1.0000    0.0000 C   0  0  0  0  0  0  0  0  0  0  0  0
    1.6611   -2.8398    0.4310 C   0  0  0  0  0  0  0  0  0  0  0  0
    2.9979   -3.0874    0.6998 N   0  0  0  0  0  0  0  0  0  0  0  0
    3.6830   -2.0176    1.2224 C   0  0  0  0  0  0  0  0  0  0  0  0
    4.0388   -1.3660    0.0000 C   0  0  0  0  0  0  0  0  0  0  0  0
    4.8479   -0.7782    0.0000 C   0  0  0  0  0  0  0  0  0  0  0  0
    3.9740   -2.3834   -0.9885 N   0  0  0  0  0  0  0  0  0  0  0  0
    3.7027   -3.5099   -0.3657 N   0  0  0  0  0  0  0  0  0  0  0  0
    0.0000    0.0000    0.0000 O   0  0  0  0  0  0  0  0  0  0  0  0
    0.8660    0.5000    0.0000 C   0  0  0  0  0  0  0  0  0  0  0  0
    1.7321    0.0000    0.0000 C   0  0  0  0  0  0  0  0  0  0  0  0
   -1.3510    1.2003    1.0079 H   0  0  0  0  0  0  0  0  0  0  0  0
   -1.6284    1.3683   -0.7186 H   0  0  0  0  0  0  0  0  0  0  0  0
   -0.4650    1.6588    0.0000 H   0  0  0  0  0  0  0  0  0  0  0  0
   -2.3331   -0.1891    0.7546 H   0  0  0  0  0  0  0  0  0  0  0  0
   -2.2502   -0.2081   -0.8394 H   0  0  0  0  0  0  0  0  0  0  0  0
    0.9331   -1.0066   -1.3920 H   0  0  0  0  0  0  0  0  0  0  0  0
    1.8359   -1.5527   -0.8622 H   0  0  0  0  0  0  0  0  0  0  0  0
    1.0364   -3.3778    1.1423 H   0  0  0  0  0  0  0  0  0  0  0  0
    1.4678   -3.3841   -0.5494 H   0  0  0  0  0  0  0  0  0  0  0  0
    3.4148   -1.5785    2.1901 H   0  0  0  0  0  0  0  0  0  0  0  0
    5.5116   -1.2010   -0.7982 H   0  0  0  0  0  0  0  0  0  0  0  0
    4.4235    0.1657   -0.4017 H   0  0  0  0  0  0  0  0  0  0  0  0
    5.7136   -0.1493    0.0000 H   0  0  0  0  0  0  0  0  0  0  0  0
    0.9125    1.1974   -0.9295 H   0  0  0  0  0  0  0  0  0  0  0  0
    0.9854    1.3606    0.7618 H   0  0  0  0  0  0  0  0  0  0  0  0
    2.1464    0.2319    1.0884 H   0  0  0  0  0  0  0  0  0  0  0  0
    2.4261    0.7225   -0.5724 H   0  0  0  0  0  0  0  0  0  0  0  0
    2.6588   -0.5350    0.0000 H   0  0  0  0  0  0  0  0  0  0  0  0
  1  2  1  0  0  0  0
  1 17  1  0  0  0  0
  1 18  1  0  0  0  0
  1 19  1  0  0  0  0
  2  3  1  0  0  0  0
  2 20  1  0  0  0  0
  2 21  1  0  0  0  0
  3  4  1  0  0  0  0
  4  5  2  0  0  0  0
  4  6  1  0  0  0  0
  4 14  1  0  0  0  0
  6  7  1  0  0  0  0
  6 22  1  0  0  0  0
  6 23  1  0  0  0  0
  7  8  1  0  0  0  0
  7 24  1  0  0  0  0
  7 25  1  0  0  0  0
  8 13  1  0  0  0  0
  8  9  1  0  0  0  0
  9 10  2  0  0  0  0
  9 26  1  0  0  0  0
 10 11  1  0  0  0  0
 10 12  1  0  0  0  0
 11 27  1  0  0  0  0
 11 28  1  0  0  0  0
 11 29  1  0  0  0  0
 12 13  2  0  0  0  0
 14 15  1  0  0  0  0
 15 16  1  0  0  0  0
 15 30  1  0  0  0  0
 15 31  1  0  0  0  0
 16 32  1  0  0  0  0
 16 33  1  0  0  0  0
 16 34  1  0  0  0  0
M  END
$$$$
