
 OpenBabel03202621312D

 28 28  0  0  1  0  0  0  0  0999 V2000
   -2.1459   -1.3949    2.9250 C   0  0  0  0  0  0  0  0  0  0  0  0
   -2.6776   -1.8860    1.9719 C   0  0  0  0  0  0  0  0  0  0  0  0
   -3.2109   -2.2671    0.6597 C   0  0  0  0  0  0  0  0  0  0  0  0
   -2.5808   -3.4507    0.0824 N   0  0  0  0  0  0  0  0  0  0  0  0
   -1.4349   -3.3777   -0.7045 C   0  0  0  0  0  0  0  0  0  0  0  0
   -1.5430   -3.8428   -1.8461 O   0  0  0  0  0  0  0  0  0  0  0  0
    0.0000   -3.0000    0.0000 C   0  0  1  0  0  0  0  0  0  0  0  0
    1.3804   -3.3859   -1.4555 Cl  0  0  0  0  0  0  0  0  0  0  0  0
    0.0000   -2.0000    0.0000 C   0  0  0  0  0  0  0  0  0  0  0  0
    1.1115   -1.2765    0.5826 O   0  0  0  0  0  0  0  0  0  0  0  0
    1.1727    0.1179    0.3094 C   0  0  0  0  0  0  0  0  0  0  0  0
    2.4136    0.6328    0.2387 C   0  0  0  0  0  0  0  0  0  0  0  0
    2.7733    1.9355    0.0195 O   0  0  0  0  0  0  0  0  0  0  0  0
    1.7097    2.8932    0.0326 C   0  0  0  0  0  0  0  0  0  0  0  0
    0.3277    2.3467   -0.0241 C   0  0  0  0  0  0  0  0  0  0  0  0
    0.0124    1.0466    0.1106 C   0  0  0  0  0  0  0  0  0  0  0  0
   -1.1465    0.5647    0.0868 O   0  5  0  0  0  0  0  0  0  0  0  0
   -1.5741   -0.8221    3.6226 H   0  0  0  0  0  0  0  0  0  0  0  0
   -3.1378   -1.4512   -0.0677 H   0  0  0  0  0  0  0  0  0  0  0  0
   -4.2731   -2.5064    0.7679 H   0  0  0  0  0  0  0  0  0  0  0  0
   -3.2626   -3.9352   -0.4856 H   0  0  0  0  0  0  0  0  0  0  0  0
    0.0000   -4.0700    0.0000 H   0  0  0  0  0  0  0  0  0  0  0  0
   -0.7707   -1.6312    0.6542 H   0  0  0  0  0  0  0  0  0  0  0  0
   -0.1893   -1.4938   -0.9648 H   0  0  0  0  0  0  0  0  0  0  0  0
    3.2927    0.0128    0.3406 H   0  0  0  0  0  0  0  0  0  0  0  0
    1.8156    3.4919    0.9451 H   0  0  0  0  0  0  0  0  0  0  0  0
    1.8663    3.5675   -0.8164 H   0  0  0  0  0  0  0  0  0  0  0  0
   -0.4772    3.0627   -0.1685 H   0  0  0  0  0  0  0  0  0  0  0  0
  1  2  3  0  0  0  0
  1 18  1  0  0  0  0
  2  3  1  0  0  0  0
  3  4  1  0  0  0  0
  3 19  1  0  0  0  0
  3 20  1  0  0  0  0
  4  5  1  0  0  0  0
  4 21  1  0  0  0  0
  5  6  2  0  0  0  0
  5  7  1  0  0  0  0
  7  8  1  0  0  0  0
  7  9  1  0  0  0  0
  7 22  1  1  0  0  0
  9 10  1  0  0  0  0
  9 23  1  0  0  0  0
  9 24  1  0  0  0  0
 10 11  1  0  0  0  0
 11 16  1  0  0  0  0
 11 12  2  0  0  0  0
 12 13  1  0  0  0  0
 12 25  1  0  0  0  0
 13 14  1  0  0  0  0
 14 15  1  0  0  0  0
 14 26  1  0  0  0  0
 14 27  1  0  0  0  0
 15 16  2  0  0  0  0
 15 28  1  0  0  0  0
 16 17  1  0  0  0  0
M  CHG  1  17  -1
M  END
$$$$
