
 OpenBabel03202621392D

 29 30  0  0  0  0  0  0  0  0999 V2000
    4.2849   -0.3681    0.0440 O   0  0  0  0  0  0  0  0  0  0  0  0
    3.2716    0.3433    0.0214 N   0  3  0  0  0  0  0  0  0  0  0  0
    3.2872    1.5842    0.0032 O   0  5  0  0  0  0  0  0  0  0  0  0
    1.9656   -0.3252    0.0180 C   0  0  0  0  0  0  0  0  0  0  0  0
    1.9067   -1.7225    0.0186 C   0  0  0  0  0  0  0  0  0  0  0  0
    0.6618   -2.3421    0.0210 C   0  0  0  0  0  0  0  0  0  0  0  0
   -0.5091   -1.5735    0.0216 C   0  0  0  0  0  0  0  0  0  0  0  0
   -0.4620   -0.1831    0.0082 C   0  0  0  0  0  0  0  0  0  0  0  0
   -1.5871    0.6573    0.0060 N   0  0  0  0  0  0  0  0  0  0  0  0
   -2.9498    0.4296   -0.0160 C   0  0  0  0  0  0  0  0  0  0  0  0
   -3.8959    1.7898    0.1244 S   0  0  0  0  0  0  0  0  0  0  0  0
   -3.3705   -0.8588   -0.1282 O   0  0  0  0  0  0  0  0  0  0  0  0
   -4.4558   -1.8592   -0.1431 C   0  0  0  0  0  0  0  0  0  0  0  0
   -4.0775   -3.1456   -0.1180 C   0  0  0  0  0  0  0  0  0  0  0  0
   -5.0467   -4.2649    0.0489 C   0  0  0  0  0  0  0  0  0  0  0  0
   -6.3937   -3.9055    0.3483 O   0  0  0  0  0  0  0  0  0  0  0  0
   -6.7184   -2.5925    0.1546 C   0  0  0  0  0  0  0  0  0  0  0  0
   -5.8880   -1.5627   -0.1126 C   0  0  0  0  0  0  0  0  0  0  0  0
   -6.1967   -0.3805   -0.3868 O   0  5  0  0  0  0  0  0  0  0  0  0
    0.7911    0.4435    0.0146 C   0  0  0  0  0  0  0  0  0  0  0  0
    2.8064   -2.3328    0.0203 H   0  0  0  0  0  0  0  0  0  0  0  0
    0.5903   -3.4284    0.0252 H   0  0  0  0  0  0  0  0  0  0  0  0
   -1.4516   -2.0964    0.0430 H   0  0  0  0  0  0  0  0  0  0  0  0
   -1.4100    1.6540    0.0518 H   0  0  0  0  0  0  0  0  0  0  0  0
   -3.0373   -3.4189   -0.1801 H   0  0  0  0  0  0  0  0  0  0  0  0
   -4.7006   -4.8933    0.8782 H   0  0  0  0  0  0  0  0  0  0  0  0
   -5.0503   -4.8932   -0.8492 H   0  0  0  0  0  0  0  0  0  0  0  0
   -7.7903   -2.4532    0.2226 H   0  0  0  0  0  0  0  0  0  0  0  0
    0.8495    1.5303    0.0136 H   0  0  0  0  0  0  0  0  0  0  0  0
  1  2  2  0  0  0  0
  2  3  1  0  0  0  0
  2  4  1  0  0  0  0
  4 20  2  0  0  0  0
  4  5  1  0  0  0  0
  5  6  2  0  0  0  0
  5 21  1  0  0  0  0
  6  7  1  0  0  0  0
  6 22  1  0  0  0  0
  7  8  2  0  0  0  0
  7 23  1  0  0  0  0
  8  9  1  0  0  0  0
  8 20  1  0  0  0  0
  9 10  1  0  0  0  0
  9 24  1  0  0  0  0
 10 11  2  0  0  0  0
 10 12  1  0  0  0  0
 12 13  1  0  0  0  0
 13 18  1  0  0  0  0
 13 14  2  0  0  0  0
 14 15  1  0  0  0  0
 14 25  1  0  0  0  0
 15 16  1  0  0  0  0
 15 26  1  0  0  0  0
 15 27  1  0  0  0  0
 16 17  1  0  0  0  0
 17 18  2  0  0  0  0
 17 28  1  0  0  0  0
 18 19  1  0  0  0  0
 20 29  1  0  0  0  0
M  CHG  3   2   1   3  -1  19  -1
M  END
$$$$
