
 OpenBabel03202621312D

 24 25  0  0  0  0  0  0  0  0999 V2000
   -1.1924    1.3243    0.0000 C   0  0  0  0  0  0  0  0  0  0  0  0
   -0.2588    0.9659    0.0000 C   0  0  0  0  0  0  0  0  0  0  0  0
    0.8470    1.5899    0.5683 C   0  0  0  0  0  0  0  0  0  0  0  0
    1.9382    0.8386    0.2469 N   0  0  0  0  0  0  0  0  0  0  0  0
    3.3471    1.0524    0.6000 C   0  0  0  0  0  0  0  0  0  0  0  0
    3.5807    2.1250    1.6288 N   0  0  0  0  0  0  0  0  0  0  0  0
    3.4921    3.3123    1.2655 N   0  3  0  0  0  0  0  0  0  0  0  0
    3.4146    4.4034    0.9544 N   0  5  0  0  0  0  0  0  0  0  0  0
    4.1581    1.4297   -0.6480 C   0  0  0  0  0  0  0  0  0  0  0  0
    3.7823    2.2578   -1.4757 O   0  0  0  0  0  0  0  0  0  0  0  0
    5.4256    0.9148   -0.7438 N   0  0  0  0  0  0  0  0  0  0  0  0
    5.8975   -0.1679   -0.0724 C   0  0  0  0  0  0  0  0  0  0  0  0
    7.0318   -0.5929   -0.2543 O   0  0  0  0  0  0  0  0  0  0  0  0
    5.0440   -0.7537    0.8076 N   0  0  0  0  0  0  0  0  0  0  0  0
    3.8680   -0.2244    1.2731 C   0  0  0  0  0  0  0  0  0  0  0  0
    3.3389   -0.7351    2.2628 O   0  0  0  0  0  0  0  0  0  0  0  0
    1.5621   -0.2213   -0.4907 N   0  0  0  0  0  0  0  0  0  0  0  0
    0.2431   -0.1613   -0.6382 N   0  0  0  0  0  0  0  0  0  0  0  0
   -1.2396    1.6935   -1.0525 H   0  0  0  0  0  0  0  0  0  0  0  0
   -1.7684    0.3729    0.0902 H   0  0  0  0  0  0  0  0  0  0  0  0
   -2.1913    1.7078    0.0000 H   0  0  0  0  0  0  0  0  0  0  0  0
    0.9177    2.5138    1.1248 H   0  0  0  0  0  0  0  0  0  0  0  0
    6.0115    1.2630   -1.4919 H   0  0  0  0  0  0  0  0  0  0  0  0
    5.3981   -1.5587    1.3076 H   0  0  0  0  0  0  0  0  0  0  0  0
  1  2  1  0  0  0  0
  1 19  1  0  0  0  0
  1 20  1  0  0  0  0
  1 21  1  0  0  0  0
  2 18  1  0  0  0  0
  2  3  2  0  0  0  0
  3  4  1  0  0  0  0
  3 22  1  0  0  0  0
  4  5  1  0  0  0  0
  4 17  1  0  0  0  0
  5 15  1  0  0  0  0
  5  6  1  0  0  0  0
  5  9  1  0  0  0  0
  6  7  2  0  0  0  0
  7  8  2  0  0  0  0
  9 10  2  0  0  0  0
  9 11  1  0  0  0  0
 11 12  1  0  0  0  0
 11 23  1  0  0  0  0
 12 13  2  0  0  0  0
 12 14  1  0  0  0  0
 14 15  1  0  0  0  0
 14 24  1  0  0  0  0
 15 16  2  0  0  0  0
 17 18  2  0  0  0  0
M  CHG  2   7   1   8  -1
M  END
$$$$
