
 OpenBabel03202621282D

 15 16  0  0  1  0  0  0  0  0999 V2000
    0.1398   -1.7765    0.0000 C   0  0  0  0  0  0  0  0  0  0  0  0
   -0.3827   -0.9239    0.0000 C   0  0  0  0  0  0  0  0  0  0  0  0
   -1.3796   -0.8454    0.0000 C   0  0  0  0  0  0  0  0  0  0  0  0
   -1.6130    0.1269    0.0000 N   0  0  0  0  0  0  0  0  0  0  0  0
   -2.5369    0.5096    0.0000 C   0  0  2  0  0  0  0  0  0  0  0  0
   -3.2440   -0.1975    0.0000 C   0  0  0  0  0  0  0  0  0  0  0  0
   -4.2440   -0.1975    0.0000 C   0  0  0  0  0  0  0  0  0  0  0  0
   -4.9511    0.5096    0.0000 C   0  0  0  0  0  0  0  0  0  0  0  0
   -4.9511    1.5096    0.0000 C   0  0  0  0  0  0  0  0  0  0  0  0
   -4.2440    2.2167    0.0000 C   0  0  0  0  0  0  0  0  0  0  0  0
   -3.2440    2.2167    0.0000 C   0  0  0  0  0  0  0  0  0  0  0  0
   -2.5369    1.5096    0.0000 C   0  0  2  0  0  0  0  0  0  0  0  0
   -1.6130    1.8923    0.0000 O   0  0  0  0  0  0  0  0  0  0  0  0
   -0.7604    0.6494    0.0000 N   0  0  0  0  0  0  0  0  0  0  0  0
   -0.0000   -0.0000    0.0000 N   0  0  0  0  0  0  0  0  0  0  0  0
  1  2  1  0  0  0  0
  2 15  1  0  0  0  0
  2  3  2  0  0  0  0
  3  4  1  0  0  0  0
  4 14  1  0  0  0  0
  5  4  1  6  0  0  0
  5  6  1  0  0  0  0
  5 12  1  0  0  0  0
  6  7  1  0  0  0  0
  7  8  1  0  0  0  0
  8  9  2  0  0  0  0
  9 10  1  0  0  0  0
 10 11  1  0  0  0  0
 11 12  1  0  0  0  0
 12 13  1  6  0  0  0
 14 15  2  0  0  0  0
M  END
$$$$
