
 OpenBabel03202621332D

 36 39  0  0  1  0  0  0  0  0999 V2000
    0.8090   -1.5878    0.0000 C   0  0  0  0  0  0  0  0  0  0  0  0
    0.0000   -1.0000    0.0000 C   0  0  0  0  0  0  0  0  0  0  0  0
   -1.1249   -1.5347    0.5885 C   0  0  0  0  0  0  0  0  0  0  0  0
   -2.1427   -0.7238    0.2464 N   0  0  0  0  0  0  0  0  0  0  0  0
   -3.4618   -1.1624    0.2312 C   0  0  0  0  0  0  0  0  0  0  0  0
   -3.7359   -2.4144   -0.3590 C   0  0  0  0  0  0  0  0  0  0  0  0
   -5.0322   -2.9034   -0.3742 C   0  0  0  0  0  0  0  0  0  0  0  0
   -6.0300   -2.1753    0.2637 C   0  0  0  0  0  0  0  0  0  0  0  0
   -7.4284   -2.3946   -0.1051 C   0  0  0  0  0  0  0  0  0  0  0  0
   -7.8858   -2.8085   -1.2752 N   0  0  0  0  0  0  0  0  0  0  0  0
   -8.7980   -1.8347   -1.6802 N   0  0  0  0  0  0  0  0  0  0  0  0
   -8.8448   -0.9747   -0.6892 C   0  0  0  0  0  0  0  0  0  0  0  0
   -9.2326    0.4896   -0.7667 C   0  0  2  0  0  0  0  0  0  0  0  0
   -9.6662    1.0834    0.5326 C   0  0  0  0  0  0  0  0  0  0  0  0
   -8.2934    1.5013    0.0000 C   0  0  1  0  0  0  0  0  0  0  0  0
   -8.1889    2.4959    0.0000 C   0  0  0  0  0  0  0  0  0  0  0  0
   -8.2467   -1.4528    0.4405 O   0  0  0  0  0  0  0  0  0  0  0  0
   -5.6864   -1.0097    0.9978 C   0  0  0  0  0  0  0  0  0  0  0  0
   -4.4203   -0.4511    0.9231 C   0  0  0  0  0  0  0  0  0  0  0  0
   -1.6662    0.4227   -0.2679 N   0  0  0  0  0  0  0  0  0  0  0  0
   -0.3543    0.2382   -0.4799 N   0  0  0  0  0  0  0  0  0  0  0  0
    0.9266   -1.7200   -1.1025 H   0  0  0  0  0  0  0  0  0  0  0  0
    1.5643   -0.8464    0.3534 H   0  0  0  0  0  0  0  0  0  0  0  0
    1.6746   -2.2167    0.0000 H   0  0  0  0  0  0  0  0  0  0  0  0
   -1.2907   -2.4788    1.0936 H   0  0  0  0  0  0  0  0  0  0  0  0
   -2.9613   -2.9714   -0.8838 H   0  0  0  0  0  0  0  0  0  0  0  0
   -5.2716   -3.7958   -0.9481 H   0  0  0  0  0  0  0  0  0  0  0  0
   -9.6740    0.8152   -1.6993 H   0  0  0  0  0  0  0  0  0  0  0  0
   -9.7003    0.4678    1.4277 H   0  0  0  0  0  0  0  0  0  0  0  0
  -10.5109    1.7698    0.4866 H   0  0  0  0  0  0  0  0  0  0  0  0
   -7.4918    1.0258    0.5668 H   0  0  0  0  0  0  0  0  0  0  0  0
   -7.1072    2.5715   -0.2796 H   0  0  0  0  0  0  0  0  0  0  0  0
   -8.7256    2.7583   -0.9452 H   0  0  0  0  0  0  0  0  0  0  0  0
   -8.0771    3.5600    0.0000 H   0  0  0  0  0  0  0  0  0  0  0  0
   -6.4405   -0.4697    1.5641 H   0  0  0  0  0  0  0  0  0  0  0  0
   -4.1923    0.4865    1.4224 H   0  0  0  0  0  0  0  0  0  0  0  0
  1  2  1  0  0  0  0
  1 22  1  0  0  0  0
  1 23  1  0  0  0  0
  1 24  1  0  0  0  0
  2 21  1  0  0  0  0
  2  3  2  0  0  0  0
  3  4  1  0  0  0  0
  3 25  1  0  0  0  0
  4  5  1  0  0  0  0
  4 20  1  0  0  0  0
  5 19  2  0  0  0  0
  5  6  1  0  0  0  0
  6  7  2  0  0  0  0
  6 26  1  0  0  0  0
  7  8  1  0  0  0  0
  7 27  1  0  0  0  0
  8  9  1  0  0  0  0
  8 18  2  0  0  0  0
  9 17  1  0  0  0  0
  9 10  2  0  0  0  0
 10 11  1  0  0  0  0
 11 12  2  0  0  0  0
 12 17  1  0  0  0  0
 13 12  1  0  0  0  0
 13 14  1  0  0  0  0
 13 15  1  0  0  0  0
 13 28  1  1  0  0  0
 14 15  1  0  0  0  0
 14 29  1  0  0  0  0
 14 30  1  0  0  0  0
 15 16  1  0  0  0  0
 15 31  1  6  0  0  0
 16 32  1  0  0  0  0
 16 33  1  0  0  0  0
 16 34  1  0  0  0  0
 18 19  1  0  0  0  0
 18 35  1  0  0  0  0
 19 36  1  0  0  0  0
 20 21  2  0  0  0  0
M  END
$$$$
