
 OpenBabel03202621372D

 33 34  0  0  1  0  0  0  0  0999 V2000
    3.8339   -0.2091   -0.2732 C   0  0  0  0  0  0  0  0  0  0  0  0
    2.5347    0.3955    0.2527 C   0  0  2  0  0  0  0  0  0  0  0  0
    2.0488    1.3039   -0.7445 O   0  0  0  0  0  0  0  0  0  0  0  0
    1.1742    2.3520   -0.2595 C   0  0  0  0  0  0  0  0  0  0  0  0
   -0.2288    1.7876   -0.1389 C   0  0  0  0  0  0  0  0  0  0  0  0
   -1.2931    2.7158   -0.1509 O   0  0  0  0  0  0  0  0  0  0  0  0
   -2.5586    2.0937   -0.1725 C   0  0  0  0  0  0  0  0  0  0  0  0
   -2.7657    0.8008   -0.4868 C   0  0  0  0  0  0  0  0  0  0  0  0
   -3.9469    0.1029   -0.4914 O   0  0  0  0  0  0  0  0  0  0  0  0
   -5.0862    0.8107   -0.0059 C   0  0  0  0  0  0  0  0  0  0  0  0
   -4.9086    2.2728    0.2402 C   0  0  0  0  0  0  0  0  0  0  0  0
   -3.7330    2.9234    0.1813 C   0  0  0  0  0  0  0  0  0  0  0  0
   -3.4855    4.1357    0.3865 O   0  5  0  0  0  0  0  0  0  0  0  0
    1.5362   -0.6582    0.7016 C   0  0  0  0  0  0  0  0  0  0  0  0
    1.5299   -2.0993    0.2129 C   0  0  0  0  0  0  0  0  0  0  0  0
    0.3762   -1.2126   -0.1137 C   0  0  0  0  0  0  0  0  0  0  0  0
    3.6637   -0.8494   -1.1445 H   0  0  0  0  0  0  0  0  0  0  0  0
    4.5199    0.5795   -0.6017 H   0  0  0  0  0  0  0  0  0  0  0  0
    4.3300   -0.8020    0.5020 H   0  0  0  0  0  0  0  0  0  0  0  0
    2.8113    0.9874    1.1344 H   0  0  0  0  0  0  0  0  0  0  0  0
    1.5435    2.7750    0.6820 H   0  0  0  0  0  0  0  0  0  0  0  0
    1.1917    3.1617   -0.9976 H   0  0  0  0  0  0  0  0  0  0  0  0
   -0.3267    1.1369   -1.0081 H   0  0  0  0  0  0  0  0  0  0  0  0
   -0.2899    1.2204    0.7954 H   0  0  0  0  0  0  0  0  0  0  0  0
   -2.0037    0.1105   -0.8067 H   0  0  0  0  0  0  0  0  0  0  0  0
   -5.4012    0.3231    0.9248 H   0  0  0  0  0  0  0  0  0  0  0  0
   -5.8835    0.6601   -0.7395 H   0  0  0  0  0  0  0  0  0  0  0  0
   -5.7934    2.8379    0.4945 H   0  0  0  0  0  0  0  0  0  0  0  0
    1.3363   -0.5214    1.7615 H   0  0  0  0  0  0  0  0  0  0  0  0
    2.1316   -2.4049   -0.6334 H   0  0  0  0  0  0  0  0  0  0  0  0
    1.3429   -2.8905    0.9293 H   0  0  0  0  0  0  0  0  0  0  0  0
   -0.5566   -1.3380    0.4280 H   0  0  0  0  0  0  0  0  0  0  0  0
    0.2425   -0.9997   -1.1677 H   0  0  0  0  0  0  0  0  0  0  0  0
  1 17  1  0  0  0  0
  1 18  1  0  0  0  0
  1 19  1  0  0  0  0
  2  1  1  0  0  0  0
  2  3  1  0  0  0  0
  2 14  1  0  0  0  0
  2 20  1  6  0  0  0
  3  4  1  0  0  0  0
  4  5  1  0  0  0  0
  4 21  1  0  0  0  0
  4 22  1  0  0  0  0
  5  6  1  0  0  0  0
  5 23  1  0  0  0  0
  5 24  1  0  0  0  0
  6  7  1  0  0  0  0
  7 12  1  0  0  0  0
  7  8  2  0  0  0  0
  8  9  1  0  0  0  0
  8 25  1  0  0  0  0
  9 10  1  0  0  0  0
 10 11  1  0  0  0  0
 10 26  1  0  0  0  0
 10 27  1  0  0  0  0
 11 12  2  0  0  0  0
 11 28  1  0  0  0  0
 12 13  1  0  0  0  0
 14 16  1  0  0  0  0
 14 15  1  0  0  0  0
 14 29  1  0  0  0  0
 15 16  1  0  0  0  0
 15 30  1  0  0  0  0
 15 31  1  0  0  0  0
 16 32  1  0  0  0  0
 16 33  1  0  0  0  0
M  CHG  1  13  -1
M  END
$$$$
