
 OpenBabel03202621372D

 16 15  0  0  1  0  0  0  0  0999 V2000
    1.9194   -3.1153   -0.0000 C   0  0  0  0  0  0  0  0  0  0  0  0
    3.0133   -2.3296    0.0000 C   0  0  0  0  0  0  0  0  0  0  0  0
    3.3832   -0.7602    0.0000 C   0  0  2  0  0  0  0  0  0  0  0  0
    4.3736    0.3286   -0.0000 O   0  0  0  0  0  0  0  0  0  0  0  0
    2.2940    0.3448   -0.0000 C   0  0  0  0  0  0  0  0  0  0  0  0
    2.3399    1.5607   -0.0000 O   0  0  0  0  0  0  0  0  0  0  0  0
    0.8660   -0.5000    0.0000 S   0  0  0  0  0  0  0  0  0  0  0  0
    0.0000    0.0000    0.0000 C   0  0  0  0  0  0  0  0  0  0  0  0
    0.8458   -2.8859    0.0000 H   0  0  0  0  0  0  0  0  0  0  0  0
    2.0196   -4.2070   -0.0000 H   0  0  0  0  0  0  0  0  0  0  0  0
    3.9037   -2.9409    0.0000 H   0  0  0  0  0  0  0  0  0  0  0  0
    4.3244   -1.2002   -0.0000 H   0  0  0  0  0  0  0  0  0  0  0  0
    5.3067    0.0666    0.0000 H   0  0  0  0  0  0  0  0  0  0  0  0
    0.1571    1.0831    0.0000 H   0  0  0  0  0  0  0  0  0  0  0  0
   -0.7914   -0.7556    0.0000 H   0  0  0  0  0  0  0  0  0  0  0  0
   -0.9266    0.5350    0.0000 H   0  0  0  0  0  0  0  0  0  0  0  0
  1  2  2  0  0  0  0
  1  9  1  0  0  0  0
  1 10  1  0  0  0  0
  2  3  1  0  0  0  0
  2 11  1  0  0  0  0
  3  4  1  0  0  0  0
  3  5  1  0  0  0  0
  3 12  1  6  0  0  0
  4 13  1  0  0  0  0
  5  6  2  0  0  0  0
  5  7  1  0  0  0  0
  7  8  1  0  0  0  0
  8 14  1  0  0  0  0
  8 15  1  0  0  0  0
  8 16  1  0  0  0  0
M  END
$$$$
