
 OpenBabel03202621282D

 17 19  0  0  0  0  0  0  0  0999 V2000
   -4.8660   -2.2321    0.0000 O   0  5  0  0  0  0  0  0  0  0  0  0
   -5.3660   -1.3660    0.0000 C   0  0  0  0  0  0  0  0  0  0  0  0
   -6.3660   -1.3660    0.0000 C   0  0  0  0  0  0  0  0  0  0  0  0
   -6.8660   -0.5000    0.0000 O   0  0  0  0  0  0  0  0  0  0  0  0
   -6.3660    0.3660    0.0000 C   0  0  0  0  0  0  0  0  0  0  0  0
   -5.3660    0.3660    0.0000 C   0  0  0  0  0  0  0  0  0  0  0  0
   -4.8660   -0.5000    0.0000 C   0  0  0  0  0  0  0  0  0  0  0  0
   -3.8660   -0.5000    0.0000 C   0  0  0  0  0  0  0  0  0  0  0  0
   -3.3660    0.3660    0.0000 C   0  0  0  0  0  0  0  0  0  0  0  0
   -2.3660    0.3660    0.0000 O   0  0  0  0  0  0  0  0  0  0  0  0
   -1.8660   -0.5000    0.0000 C   0  0  0  0  0  0  0  0  0  0  0  0
   -2.3660   -1.3660    0.0000 C   0  0  0  0  0  0  0  0  0  0  0  0
   -3.2321   -1.8660    0.0000 C   0  0  0  0  0  0  0  0  0  0  0  0
   -2.3660   -2.3660    0.0000 C   0  0  0  0  0  0  0  0  0  0  0  0
   -0.8660   -0.5000    0.0000 C   0  0  0  0  0  0  0  0  0  0  0  0
   -0.0000   -1.0000    0.0000 C   0  0  0  0  0  0  0  0  0  0  0  0
   -0.0000   -0.0000    0.0000 C   0  0  0  0  0  0  0  0  0  0  0  0
  1  2  1  0  0  0  0
  2  7  1  0  0  0  0
  2  3  2  0  0  0  0
  3  4  1  0  0  0  0
  4  5  1  0  0  0  0
  5  6  1  0  0  0  0
  6  7  1  0  0  0  0
  7  8  2  3  0  0  0
  8  9  1  0  0  0  0
  9 10  1  0  0  0  0
 10 11  1  0  0  0  0
 11 12  1  0  0  0  0
 11 15  1  0  0  0  0
 12 14  1  0  0  0  0
 12 13  1  0  0  0  0
 13 14  1  0  0  0  0
 15 17  1  0  0  0  0
 15 16  1  0  0  0  0
 16 17  1  0  0  0  0
M  CHG  1   1  -1
M  END
$$$$
