
 OpenBabel03202621372D

 24 23  0  0  1  0  0  0  0  0999 V2000
    3.4641    0.0000    0.0000 C   0  0  0  0  0  0  0  0  0  0  0  0
    3.4641    1.0000    0.0000 C   0  0  0  0  0  0  0  0  0  0  0  0
    2.5981    1.5000    0.0000 C   0  0  2  0  0  0  0  0  0  0  0  0
    2.5981    2.5000    0.0000 C   0  0  0  0  0  0  0  0  0  0  0  0
    1.1523    0.8630    0.6361 C   0  0  1  0  0  0  0  0  0  0  0  0
   -0.0941    1.7289    0.3251 C   0  0  0  0  0  0  0  0  0  0  0  0
    0.8671   -0.4714    0.0406 N   0  0  0  0  0  0  0  0  0  0  0  0
    0.0746   -1.4255    0.6092 C   0  0  0  0  0  0  0  0  0  0  0  0
   -0.5072   -1.3247    1.6809 O   0  0  0  0  0  0  0  0  0  0  0  0
    3.3449   -0.2391    1.1059 H   0  0  0  0  0  0  0  0  0  0  0  0
    4.5538   -0.2468   -0.1942 H   0  0  0  0  0  0  0  0  0  0  0  0
    3.4641   -1.0700    0.0000 H   0  0  0  0  0  0  0  0  0  0  0  0
    4.1306    1.2673   -0.8848 H   0  0  0  0  0  0  0  0  0  0  0  0
    4.1772    1.3697    0.8010 H   0  0  0  0  0  0  0  0  0  0  0  0
    2.2291    1.2550   -1.0606 H   0  0  0  0  0  0  0  0  0  0  0  0
    3.5051    2.8791   -0.5851 H   0  0  0  0  0  0  0  0  0  0  0  0
    1.7332    2.7969   -0.6610 H   0  0  0  0  0  0  0  0  0  0  0  0
    2.5981    3.5700    0.0000 H   0  0  0  0  0  0  0  0  0  0  0  0
    1.2464    0.7524    1.7194 H   0  0  0  0  0  0  0  0  0  0  0  0
   -0.0157    2.7259    0.7653 H   0  0  0  0  0  0  0  0  0  0  0  0
   -1.0105    1.2643    0.7033 H   0  0  0  0  0  0  0  0  0  0  0  0
   -0.2290    1.8366   -0.7603 H   0  0  0  0  0  0  0  0  0  0  0  0
    1.1943   -0.6570   -0.9030 H   0  0  0  0  0  0  0  0  0  0  0  0
    0.0097   -2.3288   -0.0167 H   0  0  0  0  0  0  0  0  0  0  0  0
  1  2  1  0  0  0  0
  1 10  1  0  0  0  0
  1 11  1  0  0  0  0
  1 12  1  0  0  0  0
  2  3  1  0  0  0  0
  2 13  1  0  0  0  0
  2 14  1  0  0  0  0
  3  4  1  0  0  0  0
  3  5  1  0  0  0  0
  3 15  1  6  0  0  0
  4 16  1  0  0  0  0
  4 17  1  0  0  0  0
  4 18  1  0  0  0  0
  5  6  1  0  0  0  0
  5  7  1  0  0  0  0
  5 19  1  1  0  0  0
  6 20  1  0  0  0  0
  6 21  1  0  0  0  0
  6 22  1  0  0  0  0
  7  8  1  0  0  0  0
  7 23  1  0  0  0  0
  8  9  2  0  0  0  0
  8 24  1  0  0  0  0
M  END
$$$$
