
 OpenBabel03202621282D

 24 25  0  0  1  0  0  0  0  0999 V2000
    2.6340   -2.3660    0.0000 C   0  0  0  0  0  0  0  0  0  0  0  0
    3.5000   -1.8660    0.0000 C   0  0  0  0  0  0  0  0  0  0  0  0
    3.5000   -0.8660    0.0000 C   0  0  2  0  0  0  0  0  0  0  0  0
    4.5000   -0.8660    0.0000 O   0  0  0  0  0  0  0  0  0  0  0  0
    3.5000    0.1340    0.0000 C   0  0  0  0  0  0  0  0  0  0  0  0
    2.6340    0.6340    0.0000 C   0  0  0  0  0  0  0  0  0  0  0  0
    2.6340    1.6340    0.0000 C   0  0  0  0  0  0  0  0  0  0  0  0
    3.5000    2.1340    0.0000 C   0  0  0  0  0  0  0  0  0  0  0  0
    4.3660    1.6340    0.0000 C   0  0  0  0  0  0  0  0  0  0  0  0
    4.3660    0.6340    0.0000 C   0  0  0  0  0  0  0  0  0  0  0  0
    2.5000   -0.8660    0.0000 C   0  0  2  0  0  0  0  0  0  0  0  0
    2.5000    0.1340    0.0000 C   0  0  0  0  0  0  0  0  0  0  0  0
    1.5000   -0.8660    0.0000 O   0  0  0  0  0  0  0  0  0  0  0  0
    1.0000   -0.0000    0.0000 C   0  0  0  0  0  0  0  0  0  0  0  0
    1.5000    0.8660    0.0000 C   0  0  0  0  0  0  0  0  0  0  0  0
    1.0000    1.7321    0.0000 O   0  0  0  0  0  0  0  0  0  0  0  0
   -0.0000    1.7321    0.0000 C   0  0  0  0  0  0  0  0  0  0  0  0
   -0.5000    0.8660    0.0000 C   0  0  0  0  0  0  0  0  0  0  0  0
    0.0000    0.0000    0.0000 C   0  0  0  0  0  0  0  0  0  0  0  0
   -0.5000   -0.8660    0.0000 O   0  0  0  0  0  0  0  0  0  0  0  0
    2.5000   -1.8660    0.0000 C   0  0  0  0  0  0  0  0  0  0  0  0
    1.6340   -2.3660    0.0000 O   0  0  0  0  0  0  0  0  0  0  0  0
    3.3660   -2.3660    0.0000 O   0  0  0  0  0  0  0  0  0  0  0  0
    4.2321   -1.8660    0.0000 C   0  0  0  0  0  0  0  0  0  0  0  0
  1  2  1  0  0  0  0
  2  3  1  0  0  0  0
  3  4  1  6  0  0  0
  3  5  1  0  0  0  0
  3 11  1  0  0  0  0
  5 10  2  0  0  0  0
  5  6  1  0  0  0  0
  6  7  2  0  0  0  0
  7  8  1  0  0  0  0
  8  9  2  0  0  0  0
  9 10  1  0  0  0  0
 11 12  1  6  0  0  0
 11 13  1  0  0  0  0
 11 21  1  0  0  0  0
 13 14  1  0  0  0  0
 14 19  1  0  0  0  0
 14 15  2  0  0  0  0
 15 16  1  0  0  0  0
 16 17  1  0  0  0  0
 17 18  1  0  0  0  0
 18 19  1  0  0  0  0
 19 20  2  0  0  0  0
 21 22  2  0  0  0  0
 21 23  1  0  0  0  0
 23 24  1  0  0  0  0
M  END
$$$$
