
 OpenBabel03202621332D

 32 32  0  0  0  0  0  0  0  0999 V2000
   -0.8660   -3.5000    0.0000 C   0  0  0  0  0  0  0  0  0  0  0  0
    0.0000   -3.0000    0.0000 S   0  0  0  0  0  0  0  0  0  0  0  0
    1.3369   -2.8409    0.9777 C   0  0  0  0  0  0  0  0  0  0  0  0
    1.9380   -3.7729    1.5050 O   0  0  0  0  0  0  0  0  0  0  0  0
    1.6100   -1.5374    1.1839 N   0  0  0  0  0  0  0  0  0  0  0  0
    1.3126   -0.4636    0.2445 C   0  0  0  0  0  0  0  0  0  0  0  0
   -0.0733   -0.3171   -0.0734 C   0  0  0  0  0  0  0  0  0  0  0  0
   -0.8936    0.1725    0.8891 C   0  0  0  0  0  0  0  0  0  0  0  0
   -0.3709    1.3983    1.2767 C   0  0  0  0  0  0  0  0  0  0  0  0
   -0.8660    2.5000    0.0000 C   0  0  0  0  0  0  0  0  0  0  0  0
   -1.3660    3.3660    0.0000 C   0  0  0  0  0  0  0  0  0  0  0  0
   -1.8660    2.5000    0.0000 C   0  0  0  0  0  0  0  0  0  0  0  0
    0.0000    3.0000    0.0000 C   0  0  0  0  0  0  0  0  0  0  0  0
    1.0383    1.4521    1.5971 C   0  0  0  0  0  0  0  0  0  0  0  0
    1.8904    0.6345    0.8244 C   0  0  0  0  0  0  0  0  0  0  0  0
   -1.3637   -3.0123    0.8604 H   0  0  0  0  0  0  0  0  0  0  0  0
   -0.5106   -4.5033    0.3061 H   0  0  0  0  0  0  0  0  0  0  0  0
   -1.7926   -4.0350    0.0000 H   0  0  0  0  0  0  0  0  0  0  0  0
    1.0291   -1.3167    1.9877 H   0  0  0  0  0  0  0  0  0  0  0  0
   -0.5137   -0.7531   -0.9708 H   0  0  0  0  0  0  0  0  0  0  0  0
   -1.9658    0.0359    0.7612 H   0  0  0  0  0  0  0  0  0  0  0  0
   -1.4135    3.9083   -1.1333 H   0  0  0  0  0  0  0  0  0  0  0  0
   -1.1435    4.0276    1.0309 H   0  0  0  0  0  0  0  0  0  0  0  0
   -1.9010    4.2926    0.0000 H   0  0  0  0  0  0  0  0  0  0  0  0
   -2.0773    1.6626   -0.7850 H   0  0  0  0  0  0  0  0  0  0  0  0
   -2.2755    2.0949    1.0543 H   0  0  0  0  0  0  0  0  0  0  0  0
   -2.9360    2.5000    0.0000 H   0  0  0  0  0  0  0  0  0  0  0  0
    0.6399    2.2022   -0.5009 H   0  0  0  0  0  0  0  0  0  0  0  0
    0.1782    3.5222   -1.0591 H   0  0  0  0  0  0  0  0  0  0  0  0
    0.9266    3.5350    0.0000 H   0  0  0  0  0  0  0  0  0  0  0  0
    1.4814    2.3334    2.0166 H   0  0  0  0  0  0  0  0  0  0  0  0
    2.9512    0.7660    0.7552 H   0  0  0  0  0  0  0  0  0  0  0  0
  1  2  1  0  0  0  0
  1 16  1  0  0  0  0
  1 17  1  0  0  0  0
  1 18  1  0  0  0  0
  2  3  1  0  0  0  0
  3  4  2  0  0  0  0
  3  5  1  0  0  0  0
  5  6  1  0  0  0  0
  5 19  1  0  0  0  0
  6 15  2  0  0  0  0
  6  7  1  0  0  0  0
  7  8  2  0  0  0  0
  7 20  1  0  0  0  0
  8  9  1  0  0  0  0
  8 21  1  0  0  0  0
  9 10  1  0  0  0  0
  9 14  2  0  0  0  0
 10 11  1  0  0  0  0
 10 12  1  0  0  0  0
 10 13  1  0  0  0  0
 11 22  1  0  0  0  0
 11 23  1  0  0  0  0
 11 24  1  0  0  0  0
 12 25  1  0  0  0  0
 12 26  1  0  0  0  0
 12 27  1  0  0  0  0
 13 28  1  0  0  0  0
 13 29  1  0  0  0  0
 13 30  1  0  0  0  0
 14 15  1  0  0  0  0
 14 31  1  0  0  0  0
 15 32  1  0  0  0  0
M  END
$$$$
