
 OpenBabel03202621392D

 32 32  0  0  1  0  0  0  0  0999 V2000
   -0.8660   -3.5000    0.0000 C   0  0  0  0  0  0  0  0  0  0  0  0
    0.0000   -3.0000    0.0000 S   0  0  0  0  0  0  0  0  0  0  0  0
    0.3915   -2.7425    1.7655 C   0  0  2  0  0  0  0  0  0  0  0  0
    1.9302   -2.9124    1.9115 C   0  0  0  0  0  0  0  0  0  0  0  0
    2.2674   -4.2915    1.7702 O   0  0  0  0  0  0  0  0  0  0  0  0
   -0.1687   -1.3870    2.2180 C   0  0  0  0  0  0  0  0  0  0  0  0
   -0.7612   -0.5438    1.0903 N   0  3  0  0  0  0  0  0  0  0  0  0
   -2.0304   -0.1639    1.1599 C   0  0  0  0  0  0  0  0  0  0  0  0
   -2.1532    0.9866    0.4728 C   0  0  0  0  0  0  0  0  0  0  0  0
   -0.8660    1.5000    0.0000 C   0  0  0  0  0  0  0  0  0  0  0  0
   -0.8660    2.5000    0.0000 C   0  0  0  0  0  0  0  0  0  0  0  0
   -0.4917    0.7344   -0.9339 C   0  0  0  0  0  0  0  0  0  0  0  0
    0.0000    0.0000    0.0000 C   0  0  0  0  0  0  0  0  0  0  0  0
    0.8660   -0.5000    0.0000 C   0  0  0  0  0  0  0  0  0  0  0  0
   -0.5168   -4.4950    0.3498 H   0  0  0  0  0  0  0  0  0  0  0  0
   -1.0052   -3.5944   -1.0944 H   0  0  0  0  0  0  0  0  0  0  0  0
   -1.7926   -4.0350    0.0000 H   0  0  0  0  0  0  0  0  0  0  0  0
   -0.0643   -3.5353    2.3748 H   0  0  0  0  0  0  0  0  0  0  0  0
    2.5415   -2.3500    1.2206 H   0  0  0  0  0  0  0  0  0  0  0  0
    2.2289   -2.6180    2.9280 H   0  0  0  0  0  0  0  0  0  0  0  0
    2.1662   -4.5290    0.8231 H   0  0  0  0  0  0  0  0  0  0  0  0
   -0.9832   -1.5656    2.9297 H   0  0  0  0  0  0  0  0  0  0  0  0
    0.5741   -0.7578    2.7225 H   0  0  0  0  0  0  0  0  0  0  0  0
   -2.7486   -0.6330    1.8076 H   0  0  0  0  0  0  0  0  0  0  0  0
   -3.0407    1.5989    0.5974 H   0  0  0  0  0  0  0  0  0  0  0  0
    0.2418    2.6915    0.0364 H   0  0  0  0  0  0  0  0  0  0  0  0
   -1.1470    2.7401    1.0667 H   0  0  0  0  0  0  0  0  0  0  0  0
   -0.8660    3.5700    0.0000 H   0  0  0  0  0  0  0  0  0  0  0  0
    0.0378    1.0396   -1.8347 H   0  0  0  0  0  0  0  0  0  0  0  0
    1.5469    0.3046    0.3776 H   0  0  0  0  0  0  0  0  0  0  0  0
    1.0691   -0.6773   -1.0916 H   0  0  0  0  0  0  0  0  0  0  0  0
    1.7926   -1.0350    0.0000 H   0  0  0  0  0  0  0  0  0  0  0  0
  1  2  1  0  0  0  0
  1 15  1  0  0  0  0
  1 16  1  0  0  0  0
  1 17  1  0  0  0  0
  2  3  1  0  0  0  0
  3  4  1  0  0  0  0
  3  6  1  0  0  0  0
  3 18  1  6  0  0  0
  4  5  1  0  0  0  0
  4 19  1  0  0  0  0
  4 20  1  0  0  0  0
  5 21  1  0  0  0  0
  6  7  1  0  0  0  0
  6 22  1  0  0  0  0
  6 23  1  0  0  0  0
  7 13  2  0  0  0  0
  7  8  1  0  0  0  0
  8  9  2  0  0  0  0
  8 24  1  0  0  0  0
  9 10  1  0  0  0  0
  9 25  1  0  0  0  0
 10 11  1  0  0  0  0
 10 12  2  0  0  0  0
 11 26  1  0  0  0  0
 11 27  1  0  0  0  0
 11 28  1  0  0  0  0
 12 13  1  0  0  0  0
 12 29  1  0  0  0  0
 13 14  1  0  0  0  0
 14 30  1  0  0  0  0
 14 31  1  0  0  0  0
 14 32  1  0  0  0  0
M  CHG  1   7   1
M  END
$$$$
