
 OpenBabel03202621282D

 17 18  0  0  0  0  0  0  0  0999 V2000
    0.7202   -3.6067    0.0000 C   0  0  0  0  0  0  0  0  0  0  0  0
    1.3080   -2.7976    0.0000 S   0  0  0  0  0  0  0  0  0  0  0  0
    0.9013   -1.8841    0.0000 C   0  0  0  0  0  0  0  0  0  0  0  0
    1.4890   -1.0751    0.0000 S   0  0  0  0  0  0  0  0  0  0  0  0
   -0.0933   -1.7796    0.0000 N   0  0  0  0  0  0  0  0  0  0  0  0
   -0.5000   -0.8660    0.0000 C   0  0  0  0  0  0  0  0  0  0  0  0
   -1.4781   -0.6581    0.0000 N   0  0  0  0  0  0  0  0  0  0  0  0
   -1.5827    0.3364    0.0000 C   0  0  0  0  0  0  0  0  0  0  0  0
   -2.4487    0.8364    0.0000 C   0  0  0  0  0  0  0  0  0  0  0  0
   -3.3147    0.3364    0.0000 C   0  0  0  0  0  0  0  0  0  0  0  0
   -4.1808    0.8364    0.0000 C   0  0  0  0  0  0  0  0  0  0  0  0
   -4.1808    1.8364    0.0000 C   0  0  0  0  0  0  0  0  0  0  0  0
   -5.0468    2.3364    0.0000 F   0  0  0  0  0  0  0  0  0  0  0  0
   -3.3147    2.3364    0.0000 C   0  0  0  0  0  0  0  0  0  0  0  0
   -2.4487    1.8364    0.0000 C   0  0  0  0  0  0  0  0  0  0  0  0
   -0.6691    0.7431    0.0000 C   0  0  0  0  0  0  0  0  0  0  0  0
    0.0000    0.0000    0.0000 S   0  0  0  0  0  0  0  0  0  0  0  0
  1  2  1  0  0  0  0
  2  3  1  0  0  0  0
  3  4  2  0  0  0  0
  3  5  1  0  0  0  0
  5  6  1  0  0  0  0
  6 17  1  0  0  0  0
  6  7  2  0  0  0  0
  7  8  1  0  0  0  0
  8  9  1  0  0  0  0
  8 16  2  0  0  0  0
  9 15  2  0  0  0  0
  9 10  1  0  0  0  0
 10 11  2  0  0  0  0
 11 12  1  0  0  0  0
 12 13  1  0  0  0  0
 12 14  2  0  0  0  0
 14 15  1  0  0  0  0
 16 17  1  0  0  0  0
M  END
$$$$
