
 OpenBabel03202621332D

 16 15  0  0  1  0  0  0  0  0999 V2000
    2.5981    0.5000    0.0000 C   0  0  0  0  0  0  0  0  0  0  0  0
    2.5981    1.5000    0.0000 C   0  0  0  0  0  0  0  0  0  0  0  0
    3.7294    2.0591    0.0303 O   0  0  0  0  0  0  0  0  0  0  0  0
    1.7321    2.0000    0.0000 C   0  0  2  0  0  0  0  0  0  0  0  0
    1.7321    3.0000    0.0000 C   0  0  0  0  0  0  0  0  0  0  0  0
    0.3184    1.3158   -1.2837 S   0  0  0  0  0  0  0  0  0  0  0  0
   -0.3442    0.0168   -0.2834 C   0  0  0  0  0  0  0  0  0  0  0  0
   -1.5353   -0.0251    0.0031 O   0  0  0  0  0  0  0  0  0  0  0  0
    3.1508    0.3235   -0.9665 H   0  0  0  0  0  0  0  0  0  0  0  0
    3.2316    0.3085    0.9116 H   0  0  0  0  0  0  0  0  0  0  0  0
    2.5981   -0.5700    0.0000 H   0  0  0  0  0  0  0  0  0  0  0  0
    1.2169    1.6956    0.9553 H   0  0  0  0  0  0  0  0  0  0  0  0
    1.8894    3.2542   -1.0920 H   0  0  0  0  0  0  0  0  0  0  0  0
    0.6727    3.2571    0.2885 H   0  0  0  0  0  0  0  0  0  0  0  0
    1.7321    4.0700    0.0000 H   0  0  0  0  0  0  0  0  0  0  0  0
    0.3496   -0.7616    0.0682 H   0  0  0  0  0  0  0  0  0  0  0  0
  1  2  1  0  0  0  0
  1  9  1  0  0  0  0
  1 10  1  0  0  0  0
  1 11  1  0  0  0  0
  2  3  2  0  0  0  0
  2  4  1  0  0  0  0
  4  5  1  0  0  0  0
  4  6  1  0  0  0  0
  4 12  1  6  0  0  0
  5 13  1  0  0  0  0
  5 14  1  0  0  0  0
  5 15  1  0  0  0  0
  6  7  1  0  0  0  0
  7  8  2  0  0  0  0
  7 16  1  0  0  0  0
M  END
$$$$
