
 OpenBabel03202621282D

 22 24  0  0  0  0  0  0  0  0999 V2000
    2.1081    4.0235    0.0000 C   0  0  0  0  0  0  0  0  0  0  0  0
    2.4068    3.1034    0.0000 C   0  0  0  0  0  0  0  0  0  0  0  0
    1.7594    2.3847    0.0000 O   0  0  0  0  0  0  0  0  0  0  0  0
    3.3530    2.9021    0.0000 N   0  0  0  0  0  0  0  0  0  0  0  0
    3.3528    1.9348    0.0000 C   0  0  0  0  0  0  0  0  0  0  0  0
    4.1904    1.4509    0.0000 C   0  0  0  0  0  0  0  0  0  0  0  0
    5.0608    1.9531    0.0000 Cl  0  0  0  0  0  0  0  0  0  0  0  0
    4.1902    0.4829    0.0000 C   0  0  0  0  0  0  0  0  0  0  0  0
    3.3524   -0.0007    0.0000 C   0  0  0  0  0  0  0  0  0  0  0  0
    3.3524   -0.9680    0.0000 N   0  3  0  0  0  0  0  0  0  0  0  0
    2.7050   -1.6869    0.0000 O   0  0  0  0  0  0  0  0  0  0  0  0
    4.2986   -1.1692    0.0000 O   0  5  0  0  0  0  0  0  0  0  0  0
    2.5143    0.4832    0.0000 C   0  0  0  0  0  0  0  0  0  0  0  0
    1.6765   -0.0003    0.0000 N   0  0  0  0  0  0  0  0  0  0  0  0
    0.8383    0.4836    0.0000 C   0  0  0  0  0  0  0  0  0  0  0  0
    0.8385    1.4515    0.0000 C   0  0  0  0  0  0  0  0  0  0  0  0
    2.5145    1.4512    0.0000 C   0  0  0  0  0  0  0  0  0  0  0  0
    0.0004    1.9354    0.0000 C   0  0  0  0  0  0  0  0  0  0  0  0
   -0.8374    1.4519    0.0000 O   0  0  0  0  0  0  0  0  0  0  0  0
   -0.8376    0.4839    0.0000 C   0  0  0  0  0  0  0  0  0  0  0  0
    0.0000    0.0000    0.0000 C   0  0  0  0  0  0  0  0  0  0  0  0
   -0.0001   -1.0000    0.0000 O   0  5  0  0  0  0  0  0  0  0  0  0
  1  2  1  0  0  0  0
  2  3  2  0  0  0  0
  2  4  1  0  0  0  0
  4  5  1  0  0  0  0
  5 17  2  0  0  0  0
  5  6  1  0  0  0  0
  6  7  1  0  0  0  0
  6  8  2  0  0  0  0
  8  9  1  0  0  0  0
  9 10  1  0  0  0  0
  9 13  2  0  0  0  0
 10 11  2  0  0  0  0
 10 12  1  0  0  0  0
 13 17  1  0  0  0  0
 13 14  1  0  0  0  0
 14 15  1  0  0  0  0
 15 21  1  0  0  0  0
 15 16  2  0  0  0  0
 16 17  1  0  0  0  0
 16 18  1  0  0  0  0
 18 19  1  0  0  0  0
 19 20  1  0  0  0  0
 20 21  2  0  0  0  0
 21 22  1  0  0  0  0
M  CHG  3  10   1  12  -1  22  -1
M  END
$$$$
