
 OpenBabel03202621312D

 21 20  0  0  0  0  0  0  0  0999 V2000
    6.6973   -2.0817   -0.0000 C   0  0  0  0  0  0  0  0  0  0  0  0
    6.4921   -0.7556    0.0000 C   0  0  0  0  0  0  0  0  0  0  0  0
    5.1962    0.0000    0.0000 C   0  0  0  0  0  0  0  0  0  0  0  0
    5.1962    1.0000    0.0000 C   0  0  0  0  0  0  0  0  0  0  0  0
    4.1007   -0.7648    0.0000 C   0  0  0  0  0  0  0  0  0  0  0  0
    2.8346   -0.1474    0.0000 C   0  0  0  0  0  0  0  0  0  0  0  0
    1.7526   -0.8571    0.0000 C   0  0  0  0  0  0  0  0  0  0  0  0
    0.5830   -0.1725   -0.0000 N   0  0  0  0  0  0  0  0  0  0  0  0
   -0.5789   -0.8212   -0.0000 C   0  0  0  0  0  0  0  0  0  0  0  0
   -1.6507   -0.2336   -0.0000 O   0  0  0  0  0  0  0  0  0  0  0  0
    5.9081   -2.8181   -0.0000 H   0  0  0  0  0  0  0  0  0  0  0  0
    7.7100   -2.4789   -0.0000 H   0  0  0  0  0  0  0  0  0  0  0  0
    7.4184   -0.1561   -0.0000 H   0  0  0  0  0  0  0  0  0  0  0  0
    6.2344    1.3739   -0.0000 H   0  0  0  0  0  0  0  0  0  0  0  0
    4.2313    1.4780   -0.0000 H   0  0  0  0  0  0  0  0  0  0  0  0
    5.1962    2.0700    0.0000 H   0  0  0  0  0  0  0  0  0  0  0  0
    4.1230   -1.8478    0.0000 H   0  0  0  0  0  0  0  0  0  0  0  0
    2.6641    0.9235    0.0000 H   0  0  0  0  0  0  0  0  0  0  0  0
    1.7543   -1.9589   -0.0000 H   0  0  0  0  0  0  0  0  0  0  0  0
    0.5946    0.8538   -0.0000 H   0  0  0  0  0  0  0  0  0  0  0  0
   -0.4576   -1.9045   -0.0000 H   0  0  0  0  0  0  0  0  0  0  0  0
  1  2  2  0  0  0  0
  1 11  1  0  0  0  0
  1 12  1  0  0  0  0
  2  3  1  0  0  0  0
  2 13  1  0  0  0  0
  3  4  1  0  0  0  0
  3  5  2  3  0  0  0
  4 14  1  0  0  0  0
  4 15  1  0  0  0  0
  4 16  1  0  0  0  0
  5  6  1  0  0  0  0
  5 17  1  0  0  0  0
  6  7  2  3  0  0  0
  6 18  1  0  0  0  0
  7  8  1  0  0  0  0
  7 19  1  0  0  0  0
  8  9  1  0  0  0  0
  8 20  1  0  0  0  0
  9 10  2  0  0  0  0
  9 21  1  0  0  0  0
M  END
$$$$
