
 OpenBabel03202621392D

 28 29  0  0  0  0  0  0  0  0999 V2000
   -0.0933   -1.7796    0.0000 C   0  0  0  0  0  0  0  0  0  0  0  0
   -0.5000   -0.8660    0.0000 C   0  0  0  0  0  0  0  0  0  0  0  0
   -1.4346   -0.1953   -0.7811 C   0  0  0  0  0  0  0  0  0  0  0  0
   -1.7142    0.9649   -0.1128 N   0  0  0  0  0  0  0  0  0  0  0  0
   -2.9557    1.7132   -0.1691 C   0  0  0  0  0  0  0  0  0  0  0  0
   -4.1012    0.7632    0.1533 C   0  0  0  0  0  0  0  0  0  0  0  0
   -5.3623    1.4253    0.1804 O   0  0  0  0  0  0  0  0  0  0  0  0
   -6.4400    0.5733    0.2249 C   0  0  0  0  0  0  0  0  0  0  0  0
   -6.3761   -0.8161    0.4012 C   0  0  0  0  0  0  0  0  0  0  0  0
   -7.5388   -1.5913    0.3654 C   0  0  0  0  0  0  0  0  0  0  0  0
   -8.7697   -0.9780    0.1751 C   0  0  0  0  0  0  0  0  0  0  0  0
  -10.1965   -1.9363    0.1069 Cl  0  0  0  0  0  0  0  0  0  0  0  0
   -8.8515    0.4063    0.0325 C   0  0  0  0  0  0  0  0  0  0  0  0
   -7.6858    1.1792    0.0592 C   0  0  0  0  0  0  0  0  0  0  0  0
   -0.8820    1.1269    0.9178 N   0  0  0  0  0  0  0  0  0  0  0  0
   -0.1426    0.0321    0.9963 N   0  0  0  0  0  0  0  0  0  0  0  0
   -1.0197   -2.4006    0.0282 H   0  0  0  0  0  0  0  0  0  0  0  0
    0.3533   -1.7857   -1.0221 H   0  0  0  0  0  0  0  0  0  0  0  0
    0.3419   -2.7571    0.0000 H   0  0  0  0  0  0  0  0  0  0  0  0
   -1.9981   -0.5086   -1.6491 H   0  0  0  0  0  0  0  0  0  0  0  0
   -2.9089    2.5394    0.5494 H   0  0  0  0  0  0  0  0  0  0  0  0
   -3.0488    2.1442   -1.1707 H   0  0  0  0  0  0  0  0  0  0  0  0
   -3.9190    0.2934    1.1290 H   0  0  0  0  0  0  0  0  0  0  0  0
   -4.1198   -0.0100   -0.6247 H   0  0  0  0  0  0  0  0  0  0  0  0
   -5.4372   -1.3376    0.5657 H   0  0  0  0  0  0  0  0  0  0  0  0
   -7.4667   -2.6694    0.4822 H   0  0  0  0  0  0  0  0  0  0  0  0
   -9.8133    0.8889   -0.1074 H   0  0  0  0  0  0  0  0  0  0  0  0
   -7.7529    2.2580   -0.0587 H   0  0  0  0  0  0  0  0  0  0  0  0
  1  2  1  0  0  0  0
  1 17  1  0  0  0  0
  1 18  1  0  0  0  0
  1 19  1  0  0  0  0
  2 16  1  0  0  0  0
  2  3  2  0  0  0  0
  3  4  1  0  0  0  0
  3 20  1  0  0  0  0
  4  5  1  0  0  0  0
  4 15  1  0  0  0  0
  5  6  1  0  0  0  0
  5 21  1  0  0  0  0
  5 22  1  0  0  0  0
  6  7  1  0  0  0  0
  6 23  1  0  0  0  0
  6 24  1  0  0  0  0
  7  8  1  0  0  0  0
  8 14  2  0  0  0  0
  8  9  1  0  0  0  0
  9 10  2  0  0  0  0
  9 25  1  0  0  0  0
 10 11  1  0  0  0  0
 10 26  1  0  0  0  0
 11 12  1  0  0  0  0
 11 13  2  0  0  0  0
 13 14  1  0  0  0  0
 13 27  1  0  0  0  0
 14 28  1  0  0  0  0
 15 16  2  0  0  0  0
M  END
$$$$
