
 OpenBabel03202621372D

 32 32  0  0  1  0  0  0  0  0999 V2000
    1.7601   -0.2788    0.0000 C   0  0  0  0  0  0  0  0  0  0  0  0
    0.8090   -0.5878    0.0000 C   0  0  0  0  0  0  0  0  0  0  0  0
    0.0752   -1.2554   -0.9599 C   0  0  0  0  0  0  0  0  0  0  0  0
   -1.1234   -1.5078   -0.3717 N   0  0  0  0  0  0  0  0  0  0  0  0
   -1.9616   -2.6534   -0.6374 C   0  0  0  0  0  0  0  0  0  0  0  0
   -1.2793   -3.8913   -0.0371 C   0  0  1  0  0  0  0  0  0  0  0  0
   -0.1592   -4.2284   -0.8708 O   0  0  0  0  0  0  0  0  0  0  0  0
   -2.2507   -5.0722    0.0366 C   0  0  1  0  0  0  0  0  0  0  0  0
   -3.4277   -4.7431    0.8086 O   0  0  0  0  0  0  0  0  0  0  0  0
   -1.6449   -6.3693    0.5968 C   0  0  2  0  0  0  0  0  0  0  0  0
   -0.2333   -6.4538    0.3451 O   0  0  0  0  0  0  0  0  0  0  0  0
   -2.3243   -7.5892   -0.0350 C   0  0  0  0  0  0  0  0  0  0  0  0
   -1.6296   -8.4937   -0.5141 O   0  0  0  0  0  0  0  0  0  0  0  0
   -3.8468   -7.7126    0.0727 C   0  0  0  0  0  0  0  0  0  0  0  0
   -4.6165   -6.7064   -0.5430 O   0  0  0  0  0  0  0  0  0  0  0  0
   -1.2485   -0.8858    0.8063 N   0  0  0  0  0  0  0  0  0  0  0  0
   -0.0788   -0.3333    1.0536 N   0  0  0  0  0  0  0  0  0  0  0  0
    2.1226   -0.7777    0.9298 H   0  0  0  0  0  0  0  0  0  0  0  0
    1.6093    0.8152    0.1613 H   0  0  0  0  0  0  0  0  0  0  0  0
    2.7777    0.0518    0.0000 H   0  0  0  0  0  0  0  0  0  0  0  0
    0.3465   -1.6762   -1.9162 H   0  0  0  0  0  0  0  0  0  0  0  0
   -2.9415   -2.4505   -0.1994 H   0  0  0  0  0  0  0  0  0  0  0  0
   -2.0730   -2.7367   -1.7261 H   0  0  0  0  0  0  0  0  0  0  0  0
   -0.9003   -3.6673    0.9718 H   0  0  0  0  0  0  0  0  0  0  0  0
    0.2735   -5.0032   -0.4412 H   0  0  0  0  0  0  0  0  0  0  0  0
   -2.5889   -5.2582   -0.9916 H   0  0  0  0  0  0  0  0  0  0  0  0
   -3.1937   -4.0566    1.4661 H   0  0  0  0  0  0  0  0  0  0  0  0
   -1.7812   -6.4421    1.6804 H   0  0  0  0  0  0  0  0  0  0  0  0
   -0.0533   -7.3895    0.0918 H   0  0  0  0  0  0  0  0  0  0  0  0
   -4.1279   -8.6613   -0.3918 H   0  0  0  0  0  0  0  0  0  0  0  0
   -4.1143   -7.7735    1.1341 H   0  0  0  0  0  0  0  0  0  0  0  0
   -4.5773   -5.9098    0.0244 H   0  0  0  0  0  0  0  0  0  0  0  0
  1  2  1  0  0  0  0
  1 18  1  0  0  0  0
  1 19  1  0  0  0  0
  1 20  1  0  0  0  0
  2 17  1  0  0  0  0
  2  3  2  0  0  0  0
  3  4  1  0  0  0  0
  3 21  1  0  0  0  0
  4  5  1  0  0  0  0
  4 16  1  0  0  0  0
  5  6  1  0  0  0  0
  5 22  1  0  0  0  0
  5 23  1  0  0  0  0
  6  7  1  0  0  0  0
  6  8  1  0  0  0  0
  6 24  1  6  0  0  0
  7 25  1  0  0  0  0
  8  9  1  0  0  0  0
  8 10  1  0  0  0  0
  8 26  1  1  0  0  0
  9 27  1  0  0  0  0
 10 11  1  0  0  0  0
 10 12  1  0  0  0  0
 10 28  1  1  0  0  0
 11 29  1  0  0  0  0
 12 13  2  0  0  0  0
 12 14  1  0  0  0  0
 14 15  1  0  0  0  0
 14 30  1  0  0  0  0
 14 31  1  0  0  0  0
 15 32  1  0  0  0  0
 16 17  2  0  0  0  0
M  END
$$$$
