
 OpenBabel03202621362D

 59 60  0  0  1  0  0  0  0  0999 V2000
   -1.3630   -4.3092    0.2112 C   0  0  0  0  0  0  0  0  0  0  0  0
   -0.1168   -3.6823    0.5348 O   0  0  0  0  0  0  0  0  0  0  0  0
   -0.1816   -2.3216    0.4265 C   0  0  0  0  0  0  0  0  0  0  0  0
   -1.1747   -1.5572    1.0283 C   0  0  0  0  0  0  0  0  0  0  0  0
   -1.2060   -0.1711    0.8133 C   0  0  0  0  0  0  0  0  0  0  0  0
   -0.2935    0.4620   -0.0507 C   0  0  0  0  0  0  0  0  0  0  0  0
   -0.4006    1.9458   -0.5389 C   0  0  0  0  0  0  0  0  0  0  0  0
   -1.7321    3.0000    0.0000 C   0  0  3  0  0  0  0  0  0  0  0  0
   -2.2321    2.1340    0.0000 O   0  0  0  0  0  0  0  0  0  0  0  0
   -3.3518    3.4262   -0.6873 C   0  0  2  0  0  0  0  0  0  0  0  0
   -3.8793    4.8927   -0.6296 C   0  0  0  0  0  0  0  0  0  0  0  0
   -5.3607    5.1264   -0.9382 C   0  0  0  0  0  0  0  0  0  0  0  0
   -5.5902    6.5426   -0.8716 O   0  0  0  0  0  0  0  0  0  0  0  0
   -4.4586    2.6270    0.1974 C   0  0  0  0  0  0  0  0  0  0  0  0
   -4.6157    3.0002    1.3692 O   0  0  0  0  0  0  0  0  0  0  0  0
   -5.1642    1.3418   -0.3021 C   0  0  0  0  0  0  0  0  0  0  0  0
   -4.4246    0.3000   -0.9152 C   0  0  0  0  0  0  0  0  0  0  0  0
   -4.9255   -0.9962   -1.0526 C   0  0  0  0  0  0  0  0  0  0  0  0
   -6.2028   -1.2708   -0.6184 C   0  0  0  0  0  0  0  0  0  0  0  0
   -6.9853   -0.2247   -0.1250 C   0  0  0  0  0  0  0  0  0  0  0  0
   -6.5352    1.1152    0.0267 C   0  0  0  0  0  0  0  0  0  0  0  0
   -7.3548    2.0112    0.4195 O   0  5  0  0  0  0  0  0  0  0  0  0
   -1.2321    3.8660    0.0000 C   0  0  1  0  0  0  0  0  0  0  0  0
   -1.6896    5.0073    0.7897 O   0  0  0  0  0  0  0  0  0  0  0  0
   -0.3501    4.5425   -1.1096 C   0  0  0  0  0  0  0  0  0  0  0  0
   -0.4552    4.2891   -2.3084 O   0  0  0  0  0  0  0  0  0  0  0  0
    0.7234    5.5068   -0.5997 C   0  0  0  0  0  0  0  0  0  0  0  0
    0.2464    6.9332   -0.5650 C   0  0  0  0  0  0  0  0  0  0  0  0
    1.1879    7.9747   -0.0285 C   0  0  0  0  0  0  0  0  0  0  0  0
   -0.8859    7.2409   -0.9291 O   0  0  0  0  0  0  0  0  0  0  0  0
    0.7585   -0.3178   -0.5580 C   0  0  0  0  0  0  0  0  0  0  0  0
    0.8219   -1.6946   -0.3065 C   0  0  0  0  0  0  0  0  0  0  0  0
   -2.0519   -4.2694    1.0608 H   0  0  0  0  0  0  0  0  0  0  0  0
   -1.1615   -5.3622   -0.0087 H   0  0  0  0  0  0  0  0  0  0  0  0
   -1.8222   -3.8662   -0.6804 H   0  0  0  0  0  0  0  0  0  0  0  0
   -1.9327   -2.0095    1.6630 H   0  0  0  0  0  0  0  0  0  0  0  0
   -2.0099    0.3726    1.3160 H   0  0  0  0  0  0  0  0  0  0  0  0
   -0.4288    1.9040   -1.6386 H   0  0  0  0  0  0  0  0  0  0  0  0
    0.5766    2.3663   -0.2450 H   0  0  0  0  0  0  0  0  0  0  0  0
   -2.3217    1.6329   -0.8279 H   0  0  0  0  0  0  0  0  0  0  0  0
   -3.4090    3.0819   -1.7330 H   0  0  0  0  0  0  0  0  0  0  0  0
   -3.2815    5.5256   -1.2952 H   0  0  0  0  0  0  0  0  0  0  0  0
   -3.7883    5.2886    0.3880 H   0  0  0  0  0  0  0  0  0  0  0  0
   -5.6290    4.7789   -1.9362 H   0  0  0  0  0  0  0  0  0  0  0  0
   -6.0260    4.6629   -0.2027 H   0  0  0  0  0  0  0  0  0  0  0  0
   -5.5432    6.7609    0.0701 H   0  0  0  0  0  0  0  0  0  0  0  0
   -3.4207    0.4128   -1.2729 H   0  0  0  0  0  0  0  0  0  0  0  0
   -4.3008   -1.7824   -1.4652 H   0  0  0  0  0  0  0  0  0  0  0  0
   -6.6067   -2.2756   -0.6727 H   0  0  0  0  0  0  0  0  0  0  0  0
   -8.0098   -0.4536    0.1757 H   0  0  0  0  0  0  0  0  0  0  0  0
   -0.4238    3.6989    0.7383 H   0  0  0  0  0  0  0  0  0  0  0  0
   -1.8848    5.7627    0.1948 H   0  0  0  0  0  0  0  0  0  0  0  0
    1.6125    5.4216   -1.2315 H   0  0  0  0  0  0  0  0  0  0  0  0
    1.0215    5.2234    0.4161 H   0  0  0  0  0  0  0  0  0  0  0  0
    2.0783    7.5111    0.4045 H   0  0  0  0  0  0  0  0  0  0  0  0
    0.6777    8.5389    0.7590 H   0  0  0  0  0  0  0  0  0  0  0  0
    1.4894    8.6470   -0.8354 H   0  0  0  0  0  0  0  0  0  0  0  0
    1.5268    0.1385   -1.1760 H   0  0  0  0  0  0  0  0  0  0  0  0
    1.6342   -2.2848   -0.7191 H   0  0  0  0  0  0  0  0  0  0  0  0
  1  2  1  0  0  0  0
  1 33  1  0  0  0  0
  1 34  1  0  0  0  0
  1 35  1  0  0  0  0
  2  3  1  0  0  0  0
  3 32  2  0  0  0  0
  3  4  1  0  0  0  0
  4  5  2  0  0  0  0
  4 36  1  0  0  0  0
  5  6  1  0  0  0  0
  5 37  1  0  0  0  0
  6  7  1  0  0  0  0
  6 31  2  0  0  0  0
  7  8  1  0  0  0  0
  7 38  1  0  0  0  0
  7 39  1  0  0  0  0
  8  9  1  0  0  0  0
  8 10  1  0  0  0  0
  8 23  1  0  0  0  0
  9 40  1  0  0  0  0
 10 11  1  0  0  0  0
 10 14  1  0  0  0  0
 10 41  1  6  0  0  0
 11 12  1  0  0  0  0
 11 42  1  0  0  0  0
 11 43  1  0  0  0  0
 12 13  1  0  0  0  0
 12 44  1  0  0  0  0
 12 45  1  0  0  0  0
 13 46  1  0  0  0  0
 14 15  2  0  0  0  0
 14 16  1  0  0  0  0
 16 21  2  0  0  0  0
 16 17  1  0  0  0  0
 17 18  2  0  0  0  0
 17 47  1  0  0  0  0
 18 19  1  0  0  0  0
 18 48  1  0  0  0  0
 19 20  2  0  0  0  0
 19 49  1  0  0  0  0
 20 21  1  0  0  0  0
 20 50  1  0  0  0  0
 21 22  1  0  0  0  0
 23 24  1  0  0  0  0
 23 25  1  0  0  0  0
 23 51  1  6  0  0  0
 24 52  1  0  0  0  0
 25 26  2  0  0  0  0
 25 27  1  0  0  0  0
 27 28  1  0  0  0  0
 27 53  1  0  0  0  0
 27 54  1  0  0  0  0
 28 29  1  0  0  0  0
 28 30  2  0  0  0  0
 29 55  1  0  0  0  0
 29 56  1  0  0  0  0
 29 57  1  0  0  0  0
 31 32  1  0  0  0  0
 31 58  1  0  0  0  0
 32 59  1  0  0  0  0
M  CHG  1  22  -1
M  END
$$$$
