
 OpenBabel03202621402D

 58 59  0  0  1  0  0  0  0  0999 V2000
    3.4641   -5.0000    0.0000 C   0  0  0  0  0  0  0  0  0  0  0  0
    4.3301   -4.5000    0.0000 C   0  0  0  0  0  0  0  0  0  0  0  0
    5.4369   -4.8837   -0.3853 O   0  0  0  0  0  0  0  0  0  0  0  0
    4.2086   -3.1248    0.5692 C   0  0  0  0  0  0  0  0  0  0  0  0
    2.9795   -2.3255    0.1293 C   0  0  0  0  0  0  0  0  0  0  0  0
    1.8552   -2.6122    0.5681 O   0  0  0  0  0  0  0  0  0  0  0  0
    3.2319   -1.2618   -0.9150 C   0  0  2  0  0  0  0  0  0  0  0  0
    4.3776   -0.5988   -0.3751 O   0  0  0  0  0  0  0  0  0  0  0  0
    5.3931   -0.0737   -1.0797 C   0  0  0  0  0  0  0  0  0  0  0  0
    5.4745   -0.0371   -2.7377 S   0  0  0  0  0  0  0  0  0  0  0  0
    6.3287    0.4960   -0.2347 N   0  0  0  0  0  0  0  0  0  0  0  0
    7.2722   -0.4703    0.2351 C   0  0  0  0  0  0  0  0  0  0  0  0
    8.3860   -0.5463   -0.5487 C   0  0  0  0  0  0  0  0  0  0  0  0
    8.8210    0.5245   -1.2259 F   0  0  0  0  0  0  0  0  0  0  0  0
    8.9830   -1.7691   -0.7132 C   0  0  0  0  0  0  0  0  0  0  0  0
    8.6603   -3.0000    0.0000 C   0  0  0  0  0  0  0  0  0  0  0  0
    9.5263   -3.5000    0.0000 C   0  0  0  0  0  0  0  0  0  0  0  0
    7.6303   -2.8044    0.9282 C   0  0  0  0  0  0  0  0  0  0  0  0
    6.9929   -1.5393    1.0890 C   0  0  0  0  0  0  0  0  0  0  0  0
    5.9676   -1.2058    2.6642 Br  0  0  0  0  0  0  0  0  0  0  0  0
    2.0683   -0.3133   -1.2280 C   0  0  0  0  0  0  0  0  0  0  0  0
    1.2332   -0.6649   -2.0690 O   0  0  0  0  0  0  0  0  0  0  0  0
    1.8681    1.0194   -0.4821 C   0  0  2  0  0  0  0  0  0  0  0  0
    3.1502    1.7955   -0.1489 C   0  0  0  0  0  0  0  0  0  0  0  0
    3.0368    3.2656    0.2297 C   0  0  0  0  0  0  0  0  0  0  0  0
    1.6971    3.7202    0.1832 O   0  0  0  0  0  0  0  0  0  0  0  0
    0.9918    0.8768    0.7543 C   0  0  0  0  0  0  0  0  0  0  0  0
    1.3183    1.2861    1.8666 O   0  0  0  0  0  0  0  0  0  0  0  0
   -0.3365    0.2569    0.5897 C   0  0  0  0  0  0  0  0  0  0  0  0
   -0.5618   -0.9555    1.2479 C   0  0  0  0  0  0  0  0  0  0  0  0
   -1.7183   -1.6854    0.9818 C   0  0  0  0  0  0  0  0  0  0  0  0
   -2.6652   -1.1840    0.0911 C   0  0  0  0  0  0  0  0  0  0  0  0
   -2.4693    0.0620   -0.5121 C   0  0  0  0  0  0  0  0  0  0  0  0
   -1.3090    0.7898   -0.2552 C   0  0  0  0  0  0  0  0  0  0  0  0
   -1.2172    2.0132   -0.8574 O   0  0  0  0  0  0  0  0  0  0  0  0
    3.8005   -5.8616    0.6247 H   0  0  0  0  0  0  0  0  0  0  0  0
    3.4418   -5.2450   -1.0889 H   0  0  0  0  0  0  0  0  0  0  0  0
    2.5375   -5.5350    0.0000 H   0  0  0  0  0  0  0  0  0  0  0  0
    4.1979   -3.1906    1.6597 H   0  0  0  0  0  0  0  0  0  0  0  0
    5.0881   -2.6122    0.2253 H   0  0  0  0  0  0  0  0  0  0  0  0
    3.4807   -1.7998   -1.8357 H   0  0  0  0  0  0  0  0  0  0  0  0
    6.8429    1.1803   -0.7933 H   0  0  0  0  0  0  0  0  0  0  0  0
    9.8925   -1.7200   -1.3331 H   0  0  0  0  0  0  0  0  0  0  0  0
    9.2622   -4.3632    0.6611 H   0  0  0  0  0  0  0  0  0  0  0  0
    9.4684   -3.9547   -1.0276 H   0  0  0  0  0  0  0  0  0  0  0  0
   10.4529   -4.0350    0.0000 H   0  0  0  0  0  0  0  0  0  0  0  0
    7.4084   -3.5964    1.6478 H   0  0  0  0  0  0  0  0  0  0  0  0
    1.3313    1.6490   -1.2017 H   0  0  0  0  0  0  0  0  0  0  0  0
    3.7973    1.7790   -1.0274 H   0  0  0  0  0  0  0  0  0  0  0  0
    3.6862    1.3067    0.6738 H   0  0  0  0  0  0  0  0  0  0  0  0
    3.4489    3.4342    1.2315 H   0  0  0  0  0  0  0  0  0  0  0  0
    3.6402    3.8708   -0.4570 H   0  0  0  0  0  0  0  0  0  0  0  0
    1.3609    3.6011    1.0961 H   0  0  0  0  0  0  0  0  0  0  0  0
    0.1850   -1.3639    1.9254 H   0  0  0  0  0  0  0  0  0  0  0  0
   -1.8642   -2.6570    1.4486 H   0  0  0  0  0  0  0  0  0  0  0  0
   -3.5587   -1.7608   -0.1342 H   0  0  0  0  0  0  0  0  0  0  0  0
   -3.2182    0.4577   -1.1912 H   0  0  0  0  0  0  0  0  0  0  0  0
   -0.5674    2.5765   -0.3984 H   0  0  0  0  0  0  0  0  0  0  0  0
  1  2  1  0  0  0  0
  1 36  1  0  0  0  0
  1 37  1  0  0  0  0
  1 38  1  0  0  0  0
  2  3  2  0  0  0  0
  2  4  1  0  0  0  0
  4  5  1  0  0  0  0
  4 39  1  0  0  0  0
  4 40  1  0  0  0  0
  5  6  2  0  0  0  0
  7  5  1  0  0  0  0
  7  8  1  0  0  0  0
  7 21  1  0  0  0  0
  7 41  1  6  0  0  0
  8  9  1  0  0  0  0
  9 10  2  0  0  0  0
  9 11  1  0  0  0  0
 11 12  1  0  0  0  0
 11 42  1  0  0  0  0
 12 19  2  0  0  0  0
 12 13  1  0  0  0  0
 13 14  1  0  0  0  0
 13 15  2  0  0  0  0
 15 16  1  0  0  0  0
 15 43  1  0  0  0  0
 16 17  1  0  0  0  0
 16 18  2  0  0  0  0
 17 44  1  0  0  0  0
 17 45  1  0  0  0  0
 17 46  1  0  0  0  0
 18 19  1  0  0  0  0
 18 47  1  0  0  0  0
 19 20  1  0  0  0  0
 21 22  2  0  0  0  0
 21 23  1  0  0  0  0
 23 24  1  0  0  0  0
 23 27  1  0  0  0  0
 23 48  1  6  0  0  0
 24 25  1  0  0  0  0
 24 49  1  0  0  0  0
 24 50  1  0  0  0  0
 25 26  1  0  0  0  0
 25 51  1  0  0  0  0
 25 52  1  0  0  0  0
 26 53  1  0  0  0  0
 27 28  2  0  0  0  0
 27 29  1  0  0  0  0
 29 34  2  0  0  0  0
 29 30  1  0  0  0  0
 30 31  2  0  0  0  0
 30 54  1  0  0  0  0
 31 32  1  0  0  0  0
 31 55  1  0  0  0  0
 32 33  2  0  0  0  0
 32 56  1  0  0  0  0
 33 34  1  0  0  0  0
 33 57  1  0  0  0  0
 34 35  1  0  0  0  0
 35 58  1  0  0  0  0
M  END
$$$$
