
 OpenBabel03202621352D

 33 34  0  0  1  0  0  0  0  0999 V2000
    2.7540    2.7470    0.0082 C   0  0  0  0  0  0  0  0  0  0  0  0
    1.3756    2.1095    0.2505 C   0  0  1  0  0  0  0  0  0  0  0  0
    0.4640    2.5519   -0.8220 N   0  0  0  0  0  0  0  0  0  0  0  0
   -0.9050    2.5089   -0.5919 C   0  0  0  0  0  0  0  0  0  0  0  0
   -1.6447    3.9055   -0.0844 S   0  0  0  0  0  0  0  0  0  0  0  0
   -1.4589    1.2959   -0.8366 O   0  0  0  0  0  0  0  0  0  0  0  0
   -2.6199    0.4072   -0.7640 C   0  0  0  0  0  0  0  0  0  0  0  0
   -2.3577   -0.9030   -0.9164 C   0  0  0  0  0  0  0  0  0  0  0  0
   -3.2232   -1.9514   -0.7149 O   0  0  0  0  0  0  0  0  0  0  0  0
   -4.4882   -1.6045   -0.1280 C   0  0  0  0  0  0  0  0  0  0  0  0
   -4.8239   -0.1525   -0.0770 C   0  0  0  0  0  0  0  0  0  0  0  0
   -3.9795    0.8292   -0.4190 C   0  0  0  0  0  0  0  0  0  0  0  0
   -4.2242    2.0523   -0.5414 O   0  5  0  0  0  0  0  0  0  0  0  0
    1.4163    0.5977    0.4380 C   0  0  0  0  0  0  0  0  0  0  0  0
    2.4423   -0.2190   -0.0625 C   0  0  0  0  0  0  0  0  0  0  0  0
    2.3841   -1.6115    0.0668 C   0  0  0  0  0  0  0  0  0  0  0  0
    1.2952   -2.2136    0.6898 C   0  0  0  0  0  0  0  0  0  0  0  0
    0.2896   -1.4216    1.2300 C   0  0  0  0  0  0  0  0  0  0  0  0
    0.3627   -0.0310    1.1248 C   0  0  0  0  0  0  0  0  0  0  0  0
    3.2401    2.3553   -0.8919 H   0  0  0  0  0  0  0  0  0  0  0  0
    2.6616    3.8301   -0.1398 H   0  0  0  0  0  0  0  0  0  0  0  0
    3.4202    2.5851    0.8617 H   0  0  0  0  0  0  0  0  0  0  0  0
    1.0008    2.5413    1.1894 H   0  0  0  0  0  0  0  0  0  0  0  0
    0.6460    3.5301   -0.9990 H   0  0  0  0  0  0  0  0  0  0  0  0
   -1.3829   -1.2702   -1.2005 H   0  0  0  0  0  0  0  0  0  0  0  0
   -4.5220   -2.0316    0.8820 H   0  0  0  0  0  0  0  0  0  0  0  0
   -5.2542   -2.1181   -0.7210 H   0  0  0  0  0  0  0  0  0  0  0  0
   -5.8378    0.1126    0.2057 H   0  0  0  0  0  0  0  0  0  0  0  0
    3.2970    0.2042   -0.5803 H   0  0  0  0  0  0  0  0  0  0  0  0
    3.1781   -2.2264   -0.3468 H   0  0  0  0  0  0  0  0  0  0  0  0
    1.2170   -3.2953    0.7377 H   0  0  0  0  0  0  0  0  0  0  0  0
   -0.5864   -1.8760    1.6870 H   0  0  0  0  0  0  0  0  0  0  0  0
   -0.4623    0.5597    1.5249 H   0  0  0  0  0  0  0  0  0  0  0  0
  1 20  1  0  0  0  0
  1 21  1  0  0  0  0
  1 22  1  0  0  0  0
  2  1  1  0  0  0  0
  2  3  1  0  0  0  0
  2 14  1  0  0  0  0
  2 23  1  1  0  0  0
  3  4  1  0  0  0  0
  3 24  1  0  0  0  0
  4  5  2  0  0  0  0
  4  6  1  0  0  0  0
  6  7  1  0  0  0  0
  7 12  1  0  0  0  0
  7  8  2  0  0  0  0
  8  9  1  0  0  0  0
  8 25  1  0  0  0  0
  9 10  1  0  0  0  0
 10 11  1  0  0  0  0
 10 26  1  0  0  0  0
 10 27  1  0  0  0  0
 11 12  2  0  0  0  0
 11 28  1  0  0  0  0
 12 13  1  0  0  0  0
 14 19  2  0  0  0  0
 14 15  1  0  0  0  0
 15 16  2  0  0  0  0
 15 29  1  0  0  0  0
 16 17  1  0  0  0  0
 16 30  1  0  0  0  0
 17 18  2  0  0  0  0
 17 31  1  0  0  0  0
 18 19  1  0  0  0  0
 18 32  1  0  0  0  0
 19 33  1  0  0  0  0
M  CHG  1  13  -1
M  END
$$$$
