
 OpenBabel03202621302D

 21 21  0  0  0  0  0  0  0  0999 V2000
    2.5981   -1.5000    0.0000 C   0  0  0  0  0  0  0  0  0  0  0  0
    2.5981   -0.5000    0.0000 S   0  0  0  0  0  0  0  0  0  0  0  0
    2.2208   -0.1573   -1.8863 C   0  0  0  0  0  0  0  0  0  0  0  0
    0.8022   -0.6768   -1.6729 C   0  0  0  0  0  0  0  0  0  0  0  0
    0.4976   -2.0424   -1.8131 C   0  0  0  0  0  0  0  0  0  0  0  0
   -0.2628   -2.6119   -0.8308 C   0  0  0  0  0  0  0  0  0  0  0  0
   -0.8654   -1.8677    0.1249 N   0  0  0  0  0  0  0  0  0  0  0  0
   -0.8660   -0.5000    0.0000 C   0  0  0  0  0  0  0  0  0  0  0  0
   -1.7321    0.0000    0.0000 C   0  0  0  0  0  0  0  0  0  0  0  0
    0.1040    0.0993   -0.7619 C   0  0  0  0  0  0  0  0  0  0  0  0
    2.3695   -1.6711    1.0697 H   0  0  0  0  0  0  0  0  0  0  0  0
    3.6833   -1.6758   -0.1403 H   0  0  0  0  0  0  0  0  0  0  0  0
    2.5981   -2.5700    0.0000 H   0  0  0  0  0  0  0  0  0  0  0  0
    2.6544    0.8126   -1.5625 H   0  0  0  0  0  0  0  0  0  0  0  0
    1.8140    0.5784   -2.6124 H   0  0  0  0  0  0  0  0  0  0  0  0
    1.0774   -2.6740   -2.4913 H   0  0  0  0  0  0  0  0  0  0  0  0
   -0.3634   -3.6780   -0.7168 H   0  0  0  0  0  0  0  0  0  0  0  0
   -1.8053    0.5280   -0.9992 H   0  0  0  0  0  0  0  0  0  0  0  0
   -2.5057   -0.8055   -0.1357 H   0  0  0  0  0  0  0  0  0  0  0  0
   -2.6588    0.5350    0.0000 H   0  0  0  0  0  0  0  0  0  0  0  0
    0.3071    1.1608   -0.6472 H   0  0  0  0  0  0  0  0  0  0  0  0
  1  2  1  0  0  0  0
  1 11  1  0  0  0  0
  1 12  1  0  0  0  0
  1 13  1  0  0  0  0
  2  3  1  0  0  0  0
  3  4  1  0  0  0  0
  3 14  1  0  0  0  0
  3 15  1  0  0  0  0
  4 10  2  0  0  0  0
  4  5  1  0  0  0  0
  5  6  2  0  0  0  0
  5 16  1  0  0  0  0
  6  7  1  0  0  0  0
  6 17  1  0  0  0  0
  7  8  2  0  0  0  0
  8  9  1  0  0  0  0
  8 10  1  0  0  0  0
  9 18  1  0  0  0  0
  9 19  1  0  0  0  0
  9 20  1  0  0  0  0
 10 21  1  0  0  0  0
M  END
$$$$
