
 OpenBabel03202621322D

 23 24  0  0  1  0  0  0  0  0999 V2000
   -1.6737    0.6318    0.0000 C   0  0  0  0  0  0  0  0  0  0  0  0
   -0.8935    0.3121    0.0000 C   0  0  0  0  0  0  0  0  0  0  0  0
   -0.5784   -1.1233    0.3167 N   0  0  0  0  0  0  0  0  0  0  0  0
   -1.5461   -2.0982    0.5087 C   0  0  0  0  0  0  0  0  0  0  0  0
   -1.3503   -3.2974    0.6155 O   0  0  0  0  0  0  0  0  0  0  0  0
    0.7898   -1.5124    0.0059 C   0  0  3  0  0  0  0  0  0  0  0  0
    1.9374   -0.5382   -0.5217 C   0  0  0  0  0  0  0  0  0  0  0  0
    2.4712   -2.0327   -0.6853 C   0  0  3  0  0  0  0  0  0  0  0  0
    1.7484   -2.5734    0.6583 C   0  0  0  0  0  0  0  0  0  0  0  0
    1.0534   -2.2866   -1.3247 C   0  0  0  0  0  0  0  0  0  0  0  0
   -1.4897    1.7021   -0.2997 H   0  0  0  0  0  0  0  0  0  0  0  0
   -1.9174    0.6289    1.0966 H   0  0  0  0  0  0  0  0  0  0  0  0
   -2.6638    1.0375    0.0000 H   0  0  0  0  0  0  0  0  0  0  0  0
   -0.4677    0.3289   -1.0222 H   0  0  0  0  0  0  0  0  0  0  0  0
   -0.0879    0.8177    0.5779 H   0  0  0  0  0  0  0  0  0  0  0  0
   -2.5694   -1.6824    0.5539 H   0  0  0  0  0  0  0  0  0  0  0  0
    1.7595    0.0519   -1.4232 H   0  0  0  0  0  0  0  0  0  0  0  0
    2.4388    0.0579    0.2423 H   0  0  0  0  0  0  0  0  0  0  0  0
    3.3963   -2.3541   -1.1373 H   0  0  0  0  0  0  0  0  0  0  0  0
    2.2506   -2.2745    1.5814 H   0  0  0  0  0  0  0  0  0  0  0  0
    1.4622   -3.6259    0.6879 H   0  0  0  0  0  0  0  0  0  0  0  0
    0.7976   -1.7709   -2.2560 H   0  0  0  0  0  0  0  0  0  0  0  0
    0.7054   -3.3206   -1.3899 H   0  0  0  0  0  0  0  0  0  0  0  0
  1  2  1  0  0  0  0
  1 11  1  0  0  0  0
  1 12  1  0  0  0  0
  1 13  1  0  0  0  0
  2  3  1  0  0  0  0
  2 14  1  0  0  0  0
  2 15  1  0  0  0  0
  3  4  1  0  0  0  0
  3  6  1  0  0  0  0
  4  5  2  0  0  0  0
  4 16  1  0  0  0  0
  6  9  1  0  0  0  0
  6 10  1  0  0  0  0
  6  7  1  0  0  0  0
  7  8  1  0  0  0  0
  7 17  1  0  0  0  0
  7 18  1  0  0  0  0
  8  9  1  0  0  0  0
  8 10  1  0  0  0  0
  8 19  1  0  0  0  0
  9 20  1  0  0  0  0
  9 21  1  0  0  0  0
 10 22  1  0  0  0  0
 10 23  1  0  0  0  0
M  END
$$$$
