
 OpenBabel03202621322D

 21 20  0  0  1  0  0  0  0  0999 V2000
    2.5981   -1.5000    0.0000 C   0  0  0  0  0  0  0  0  0  0  0  0
    3.4641   -1.0000    0.0000 S   0  0  0  0  0  0  0  0  0  0  0  0
    3.6444    0.6472    0.3667 C   0  0  0  0  0  0  0  0  0  0  0  0
    4.3659    1.3963   -0.2917 O   0  0  0  0  0  0  0  0  0  0  0  0
    2.8761    1.0394    1.6110 C   0  0  1  0  0  0  0  0  0  0  0  0
    2.8988    2.5411    1.6934 N   0  0  0  0  0  0  0  0  0  0  0  0
    1.4458    0.3248    1.5349 C   0  0  0  0  0  0  0  0  0  0  0  0
    0.8660    0.5000    0.0000 C   0  0  0  0  0  0  0  0  0  0  0  0
    0.8660    1.5000    0.0000 C   0  0  0  0  0  0  0  0  0  0  0  0
    0.2815   -0.3389   -0.6586 O   0  0  0  0  0  0  0  0  0  0  0  0
    2.4907   -1.6498   -1.0928 H   0  0  0  0  0  0  0  0  0  0  0  0
    2.9530   -2.4568    0.4289 H   0  0  0  0  0  0  0  0  0  0  0  0
    1.6715   -2.0350    0.0000 H   0  0  0  0  0  0  0  0  0  0  0  0
    3.4225    0.6840    2.4941 H   0  0  0  0  0  0  0  0  0  0  0  0
    3.8908    2.8210    1.7523 H   0  0  0  0  0  0  0  0  0  0  0  0
    2.6779    2.9363    0.7690 H   0  0  0  0  0  0  0  0  0  0  0  0
    0.7724    0.8341    2.2434 H   0  0  0  0  0  0  0  0  0  0  0  0
    1.4676   -0.7120    1.8773 H   0  0  0  0  0  0  0  0  0  0  0  0
    1.1727    1.6286   -1.0655 H   0  0  0  0  0  0  0  0  0  0  0  0
   -0.2387    1.6385    0.1091 H   0  0  0  0  0  0  0  0  0  0  0  0
    0.8660    2.5700    0.0000 H   0  0  0  0  0  0  0  0  0  0  0  0
  1  2  1  0  0  0  0
  1 11  1  0  0  0  0
  1 12  1  0  0  0  0
  1 13  1  0  0  0  0
  2  3  1  0  0  0  0
  3  4  2  0  0  0  0
  3  5  1  0  0  0  0
  5  6  1  0  0  0  0
  5  7  1  0  0  0  0
  5 14  1  1  0  0  0
  6 15  1  0  0  0  0
  6 16  1  0  0  0  0
  7  8  1  0  0  0  0
  7 17  1  0  0  0  0
  7 18  1  0  0  0  0
  8  9  1  0  0  0  0
  8 10  2  0  0  0  0
  9 19  1  0  0  0  0
  9 20  1  0  0  0  0
  9 21  1  0  0  0  0
M  END
$$$$
