
 OpenBabel03202621282D

 18 20  0  0  0  0  0  0  0  0999 V2000
    0.0933    1.7796    0.0000 C   0  0  0  0  0  0  0  0  0  0  0  0
    0.5000    0.8660    0.0000 C   0  0  0  0  0  0  0  0  0  0  0  0
    1.4781    0.6581    0.0000 C   0  0  0  0  0  0  0  0  0  0  0  0
    1.5827   -0.3364    0.0000 N   0  0  0  0  0  0  0  0  0  0  0  0
    2.4487   -0.8364    0.0000 C   0  0  0  0  0  0  0  0  0  0  0  0
    3.3147   -0.3364    0.0000 C   0  0  0  0  0  0  0  0  0  0  0  0
    4.1808   -0.8364    0.0000 C   0  0  0  0  0  0  0  0  0  0  0  0
    5.0468   -0.3364    0.0000 C   0  0  0  0  0  0  0  0  0  0  0  0
    5.9128   -0.8364    0.0000 C   0  0  0  0  0  0  0  0  0  0  0  0
    5.9128   -1.8364    0.0000 C   0  0  0  0  0  0  0  0  0  0  0  0
    6.7788   -2.3364    0.0000 O   0  0  0  0  0  0  0  0  0  0  0  0
    5.0468   -2.3364    0.0000 C   0  0  0  0  0  0  0  0  0  0  0  0
    4.1808   -1.8364    0.0000 C   0  0  0  0  0  0  0  0  0  0  0  0
    3.3147   -2.3364    0.0000 O   0  0  0  0  0  0  0  0  0  0  0  0
    2.4487   -1.8364    0.0000 C   0  0  0  0  0  0  0  0  0  0  0  0
    1.5827   -2.3364    0.0000 O   0  0  0  0  0  0  0  0  0  0  0  0
    0.6691   -0.7431    0.0000 N   0  0  0  0  0  0  0  0  0  0  0  0
    0.0000   -0.0000    0.0000 N   0  0  0  0  0  0  0  0  0  0  0  0
  1  2  1  0  0  0  0
  2 18  1  0  0  0  0
  2  3  2  0  0  0  0
  3  4  1  0  0  0  0
  4  5  1  0  0  0  0
  4 17  1  0  0  0  0
  5 15  1  0  0  0  0
  5  6  2  0  0  0  0
  6  7  1  0  0  0  0
  7 13  2  0  0  0  0
  7  8  1  0  0  0  0
  8  9  2  0  0  0  0
  9 10  1  0  0  0  0
 10 11  1  0  0  0  0
 10 12  2  0  0  0  0
 12 13  1  0  0  0  0
 13 14  1  0  0  0  0
 14 15  1  0  0  0  0
 15 16  2  0  0  0  0
 17 18  2  0  0  0  0
M  END
$$$$
