
 OpenBabel03202621332D

 15 14  0  0  0  0  0  0  0  0999 V2000
    1.0461    4.1451   -0.3823 C   0  0  0  0  0  0  0  0  0  0  0  0
   -0.2540    4.3055   -0.0983 C   0  0  0  0  0  0  0  0  0  0  0  0
   -1.4215    3.3573   -0.2566 C   0  0  0  0  0  0  0  0  0  0  0  0
   -1.2838    1.8976   -0.7172 C   0  0  0  0  0  0  0  0  0  0  0  0
   -2.1029    1.3619   -1.4602 O   0  0  0  0  0  0  0  0  0  0  0  0
    0.0000    1.0000    0.0000 S   0  0  0  0  0  0  0  0  0  0  0  0
    0.0000    0.0000    0.0000 C   0  0  0  0  0  0  0  0  0  0  0  0
    1.4731    3.2430   -0.8057 H   0  0  0  0  0  0  0  0  0  0  0  0
    1.7506    4.9504   -0.1825 H   0  0  0  0  0  0  0  0  0  0  0  0
   -0.5350    5.2742    0.3201 H   0  0  0  0  0  0  0  0  0  0  0  0
   -2.1127    3.8357   -0.9607 H   0  0  0  0  0  0  0  0  0  0  0  0
   -1.9426    3.3196    0.7130 H   0  0  0  0  0  0  0  0  0  0  0  0
   -0.5683   -0.1786    0.9340 H   0  0  0  0  0  0  0  0  0  0  0  0
    1.0722   -0.1715    0.2123 H   0  0  0  0  0  0  0  0  0  0  0  0
    0.0000   -1.0700    0.0000 H   0  0  0  0  0  0  0  0  0  0  0  0
  1  2  2  0  0  0  0
  1  8  1  0  0  0  0
  1  9  1  0  0  0  0
  2  3  1  0  0  0  0
  2 10  1  0  0  0  0
  3  4  1  0  0  0  0
  3 11  1  0  0  0  0
  3 12  1  0  0  0  0
  4  5  2  0  0  0  0
  4  6  1  0  0  0  0
  6  7  1  0  0  0  0
  7 13  1  0  0  0  0
  7 14  1  0  0  0  0
  7 15  1  0  0  0  0
M  END
$$$$
