
 OpenBabel03202621302D

 32 33  0  0  1  0  0  0  0  0999 V2000
   -3.4641   -3.0000    0.0000 C   0  0  0  0  0  0  0  0  0  0  0  0
   -2.5981   -3.5000    0.0000 S   0  0  0  0  0  0  0  0  0  0  0  0
   -1.8578   -3.0828    1.4794 C   0  0  0  0  0  0  0  0  0  0  0  0
   -1.6920   -3.8148    2.4339 O   0  0  0  0  0  0  0  0  0  0  0  0
   -1.4836   -1.7844    1.3266 N   0  0  0  0  0  0  0  0  0  0  0  0
   -0.8660   -1.5000    0.0000 C   0  0  1  0  0  0  0  0  0  0  0  0
    0.0000   -2.0000    0.0000 C   0  0  0  0  0  0  0  0  0  0  0  0
   -0.7951    0.1171   -0.0610 C   0  0  0  0  0  0  0  0  0  0  0  0
   -2.0621    0.7540   -0.0398 C   0  0  0  0  0  0  0  0  0  0  0  0
   -2.1706    2.1417    0.0295 C   0  0  0  0  0  0  0  0  0  0  0  0
   -1.0199    2.9165    0.0593 C   0  0  0  0  0  0  0  0  0  0  0  0
    0.2554    2.3395   -0.0106 C   0  0  0  0  0  0  0  0  0  0  0  0
    1.3759    3.1906    0.0215 C   0  0  0  0  0  0  0  0  0  0  0  0
    2.6717    2.6899   -0.0601 C   0  0  0  0  0  0  0  0  0  0  0  0
    2.8660    1.3335   -0.1962 C   0  0  0  0  0  0  0  0  0  0  0  0
    1.7624    0.4797   -0.2270 C   0  0  0  0  0  0  0  0  0  0  0  0
    0.4103    0.9296   -0.1044 C   0  0  0  0  0  0  0  0  0  0  0  0
   -3.4249   -2.5630   -1.0171 H   0  0  0  0  0  0  0  0  0  0  0  0
   -4.1597   -3.8609   -0.0542 H   0  0  0  0  0  0  0  0  0  0  0  0
   -4.3907   -2.4650    0.0000 H   0  0  0  0  0  0  0  0  0  0  0  0
   -2.1970   -1.1415    1.6356 H   0  0  0  0  0  0  0  0  0  0  0  0
   -1.5371   -1.6130   -0.8585 H   0  0  0  0  0  0  0  0  0  0  0  0
    0.3761   -1.7647   -1.0243 H   0  0  0  0  0  0  0  0  0  0  0  0
    0.5777   -1.5216    0.8308 H   0  0  0  0  0  0  0  0  0  0  0  0
    0.9266   -2.5350    0.0000 H   0  0  0  0  0  0  0  0  0  0  0  0
   -2.9792    0.1738   -0.0495 H   0  0  0  0  0  0  0  0  0  0  0  0
   -3.1463    2.6106    0.0671 H   0  0  0  0  0  0  0  0  0  0  0  0
   -1.1358    3.9966    0.1310 H   0  0  0  0  0  0  0  0  0  0  0  0
    1.2450    4.2672    0.1165 H   0  0  0  0  0  0  0  0  0  0  0  0
    3.5241    3.3637   -0.0174 H   0  0  0  0  0  0  0  0  0  0  0  0
    3.8689    0.9201   -0.2721 H   0  0  0  0  0  0  0  0  0  0  0  0
    2.0074   -0.5698   -0.3517 H   0  0  0  0  0  0  0  0  0  0  0  0
  1  2  1  0  0  0  0
  1 18  1  0  0  0  0
  1 19  1  0  0  0  0
  1 20  1  0  0  0  0
  2  3  1  0  0  0  0
  3  4  2  0  0  0  0
  3  5  1  0  0  0  0
  5  6  1  0  0  0  0
  5 21  1  0  0  0  0
  6  7  1  0  0  0  0
  6  8  1  0  0  0  0
  6 22  1  1  0  0  0
  7 23  1  0  0  0  0
  7 24  1  0  0  0  0
  7 25  1  0  0  0  0
  8 17  2  0  0  0  0
  8  9  1  0  0  0  0
  9 10  2  0  0  0  0
  9 26  1  0  0  0  0
 10 11  1  0  0  0  0
 10 27  1  0  0  0  0
 11 12  2  0  0  0  0
 11 28  1  0  0  0  0
 12 17  1  0  0  0  0
 12 13  1  0  0  0  0
 13 14  2  0  0  0  0
 13 29  1  0  0  0  0
 14 15  1  0  0  0  0
 14 30  1  0  0  0  0
 15 16  2  0  0  0  0
 15 31  1  0  0  0  0
 16 17  1  0  0  0  0
 16 32  1  0  0  0  0
M  END
$$$$
