
 OpenBabel03202621302D

 22 23  0  0  0  0  0  0  0  0999 V2000
    4.4578    2.8123   -0.5283 O   0  0  0  0  0  0  0  0  0  0  0  0
    3.4451    3.1855    0.0430 C   0  0  0  0  0  0  0  0  0  0  0  0
    2.1839    2.1739    0.7361 S   0  0  0  0  0  0  0  0  0  0  0  0
    2.7346    0.5682    0.3161 C   0  0  0  0  0  0  0  0  0  0  0  0
    3.9960    0.2118    0.3348 N   0  0  0  0  0  0  0  0  0  0  0  0
    3.9931   -1.1342    0.1731 C   0  0  0  0  0  0  0  0  0  0  0  0
    2.7033   -1.6303    0.1246 C   0  0  0  0  0  0  0  0  0  0  0  0
    2.2990   -3.0070    0.1631 C   0  0  0  0  0  0  0  0  0  0  0  0
    1.1742   -3.4710    0.2489 O   0  0  0  0  0  0  0  0  0  0  0  0
    3.3667   -3.8303    0.0932 O   0  0  0  0  0  0  0  0  0  0  0  0
    1.8660   -0.5000    0.0000 N   0  0  0  0  0  0  0  0  0  0  0  0
    0.8660   -0.5000    0.0000 C   0  0  0  0  0  0  0  0  0  0  0  0
    0.4818   -1.1392   -1.4611 C   0  0  0  0  0  0  0  0  0  0  0  0
    0.4804    0.3520   -1.3472 C   0  0  0  0  0  0  0  0  0  0  0  0
    3.2342    4.2646    0.1412 H   0  0  0  0  0  0  0  0  0  0  0  0
    4.9169   -1.7000    0.1827 H   0  0  0  0  0  0  0  0  0  0  0  0
    2.9705   -4.7240    0.1308 H   0  0  0  0  0  0  0  0  0  0  0  0
   -0.2040   -0.5000    0.0000 H   0  0  0  0  0  0  0  0  0  0  0  0
   -0.4699   -1.6628   -1.5708 H   0  0  0  0  0  0  0  0  0  0  0  0
    1.2309   -1.5741   -2.1238 H   0  0  0  0  0  0  0  0  0  0  0  0
    1.2300    0.8798   -1.9387 H   0  0  0  0  0  0  0  0  0  0  0  0
   -0.4765    0.8754   -1.3884 H   0  0  0  0  0  0  0  0  0  0  0  0
  1  2  2  0  0  0  0
  2  3  1  0  0  0  0
  2 15  1  0  0  0  0
  3  4  1  0  0  0  0
  4 11  1  0  0  0  0
  4  5  2  0  0  0  0
  5  6  1  0  0  0  0
  6  7  2  0  0  0  0
  6 16  1  0  0  0  0
  7  8  1  0  0  0  0
  7 11  1  0  0  0  0
  8  9  2  0  0  0  0
  8 10  1  0  0  0  0
 10 17  1  0  0  0  0
 11 12  1  0  0  0  0
 12 14  1  0  0  0  0
 12 13  1  0  0  0  0
 12 18  1  0  0  0  0
 13 14  1  0  0  0  0
 13 19  1  0  0  0  0
 13 20  1  0  0  0  0
 14 21  1  0  0  0  0
 14 22  1  0  0  0  0
M  END
$$$$
