
 OpenBabel03202621392D

 19 18  0  0  0  0  0  0  0  0999 V2000
    3.4641    0.0000    0.0000 C   0  0  0  0  0  0  0  0  0  0  0  0
    2.5981    0.5000    0.0000 S   0  0  0  0  0  0  0  0  0  0  0  0
    1.7321    0.0000    0.0000 C   0  0  0  0  0  0  0  0  0  0  0  0
    1.2321   -0.8660    0.0000 C   0  0  0  0  0  0  0  0  0  0  0  0
    2.2321   -0.8660    0.0000 C   0  0  0  0  0  0  0  0  0  0  0  0
    0.4362    1.0592   -0.3289 C   0  0  0  0  0  0  0  0  0  0  0  0
    0.6134    2.3911    0.0148 N   0  0  0  0  0  0  0  0  0  0  0  0
   -0.6570    0.7685   -0.8135 O   0  0  0  0  0  0  0  0  0  0  0  0
    3.9197    0.3870   -0.9602 H   0  0  0  0  0  0  0  0  0  0  0  0
    4.0209    0.5908    0.7830 H   0  0  0  0  0  0  0  0  0  0  0  0
    4.3907   -0.5350    0.0000 H   0  0  0  0  0  0  0  0  0  0  0  0
    0.3496   -0.6936    0.7853 H   0  0  0  0  0  0  0  0  0  0  0  0
    0.6901   -0.9362   -1.0881 H   0  0  0  0  0  0  0  0  0  0  0  0
    0.6971   -1.7926    0.0000 H   0  0  0  0  0  0  0  0  0  0  0  0
    1.9186   -1.4271    1.3513 H   0  0  0  0  0  0  0  0  0  0  0  0
    3.0287   -1.2460    1.1371 H   0  0  0  0  0  0  0  0  0  0  0  0
    2.7671   -1.7926    0.0000 H   0  0  0  0  0  0  0  0  0  0  0  0
    1.5560    2.7463    0.1308 H   0  0  0  0  0  0  0  0  0  0  0  0
   -0.1152    3.0287   -0.2741 H   0  0  0  0  0  0  0  0  0  0  0  0
  1  2  1  0  0  0  0
  1  9  1  0  0  0  0
  1 10  1  0  0  0  0
  1 11  1  0  0  0  0
  2  3  1  0  0  0  0
  3  4  1  0  0  0  0
  3  5  1  0  0  0  0
  3  6  1  0  0  0  0
  4 12  1  0  0  0  0
  4 13  1  0  0  0  0
  4 14  1  0  0  0  0
  5 15  1  0  0  0  0
  5 16  1  0  0  0  0
  5 17  1  0  0  0  0
  6  7  1  0  0  0  0
  6  8  2  0  0  0  0
  7 18  1  0  0  0  0
  7 19  1  0  0  0  0
M  END
$$$$
