
 OpenBabel03202621382D

 18 17  0  0  0  0  0  0  0  0999 V2000
    4.3301   -1.5000    0.0000 C   0  0  0  0  0  0  0  0  0  0  0  0
    4.3301   -0.5000    0.0000 N   0  0  0  0  0  0  0  0  0  0  0  0
    4.0759    0.1841    1.2299 C   0  0  0  0  0  3  0  0  0  0  0  0
    2.7994    0.9575    1.3599 C   0  0  0  0  0  0  0  0  0  0  0  0
    1.9920    0.8585    0.0825 C   0  0  0  0  0  0  0  0  0  0  0  0
    2.0519    1.6880   -0.8228 O   0  0  0  0  0  0  0  0  0  0  0  0
    0.8660   -0.5000    0.0000 S   0  0  0  0  0  0  0  0  0  0  0  0
    0.0000    0.0000    0.0000 C   0  0  0  0  0  0  0  0  0  0  0  0
    3.9995   -1.6755   -1.0452 H   0  0  0  0  0  0  0  0  0  0  0  0
    5.4238   -1.7056    0.0737 H   0  0  0  0  0  0  0  0  0  0  0  0
    4.3301   -2.5700    0.0000 H   0  0  0  0  0  0  0  0  0  0  0  0
    5.0373    0.0101   -0.5383 H   0  0  0  0  0  0  0  0  0  0  0  0
    4.9178    0.5929    1.7896 H   0  0  0  0  0  0  0  0  0  0  0  0
    3.0291    2.0171    1.5197 H   0  0  0  0  0  0  0  0  0  0  0  0
    2.2196    0.6212    2.2253 H   0  0  0  0  0  0  0  0  0  0  0  0
   -0.2870   -0.1408    1.0619 H   0  0  0  0  0  0  0  0  0  0  0  0
   -0.6034   -0.7021   -0.6067 H   0  0  0  0  0  0  0  0  0  0  0  0
   -0.9266    0.5350    0.0000 H   0  0  0  0  0  0  0  0  0  0  0  0
  1  2  1  0  0  0  0
  1  9  1  0  0  0  0
  1 10  1  0  0  0  0
  1 11  1  0  0  0  0
  2  3  1  0  0  0  0
  2 12  1  0  0  0  0
  3  4  1  0  0  0  0
  3 13  1  0  0  0  0
  4  5  1  0  0  0  0
  4 14  1  0  0  0  0
  4 15  1  0  0  0  0
  5  6  2  0  0  0  0
  5  7  1  0  0  0  0
  7  8  1  0  0  0  0
  8 16  1  0  0  0  0
  8 17  1  0  0  0  0
  8 18  1  0  0  0  0
M  END
$$$$
