
 OpenBabel03202621332D

 19 19  0  0  1  0  0  0  0  0999 V2000
    0.8090    1.5878    0.0000 C   0  0  0  0  0  0  0  0  0  0  0  0
    0.8090    0.5878    0.0000 C   0  0  0  0  0  0  0  0  0  0  0  0
    2.0772    0.1418    0.0000 N   0  0  0  0  0  0  0  0  0  0  0  0
    1.9103   -1.0904   -0.0000 N   0  0  0  0  0  0  0  0  0  0  0  0
    0.6455   -0.9398   -0.0000 C   0  0  0  0  0  0  0  0  0  0  0  0
   -0.2788   -1.7601    0.0000 C   0  0  1  0  0  0  0  0  0  0  0  0
   -1.2733   -1.6555    0.0000 C   0  0  0  0  0  0  0  0  0  0  0  0
    0.2467   -3.0497    0.0000 O   0  0  0  0  0  0  0  0  0  0  0  0
   -0.3095   -4.2718    0.0000 C   0  0  0  0  0  0  0  0  0  0  0  0
   -1.4892   -4.5799   -0.0000 O   0  0  0  0  0  0  0  0  0  0  0  0
   -0.2153    0.1616   -0.0000 O   0  0  0  0  0  0  0  0  0  0  0  0
    1.8370    2.0173   -0.0000 H   0  0  0  0  0  0  0  0  0  0  0  0
   -0.2248    2.0215    0.0000 H   0  0  0  0  0  0  0  0  0  0  0  0
    0.8090    2.6578    0.0000 H   0  0  0  0  0  0  0  0  0  0  0  0
   -0.9072   -1.0763    0.0000 H   0  0  0  0  0  0  0  0  0  0  0  0
   -2.0823   -0.4640   -0.0000 H   0  0  0  0  0  0  0  0  0  0  0  0
   -1.7967   -2.6263   -0.0000 H   0  0  0  0  0  0  0  0  0  0  0  0
   -2.3374   -1.5436    0.0000 H   0  0  0  0  0  0  0  0  0  0  0  0
    0.4977   -5.0140    0.0000 H   0  0  0  0  0  0  0  0  0  0  0  0
  1  2  1  0  0  0  0
  1 12  1  0  0  0  0
  1 13  1  0  0  0  0
  1 14  1  0  0  0  0
  2 11  1  0  0  0  0
  2  3  2  0  0  0  0
  3  4  1  0  0  0  0
  4  5  2  0  0  0  0
  5  6  1  0  0  0  0
  5 11  1  0  0  0  0
  6  7  1  0  0  0  0
  6  8  1  0  0  0  0
  6 15  1  1  0  0  0
  7 16  1  0  0  0  0
  7 17  1  0  0  0  0
  7 18  1  0  0  0  0
  8  9  1  0  0  0  0
  9 10  2  0  0  0  0
  9 19  1  0  0  0  0
M  END
$$$$
