
 OpenBabel03202621392D

 26 26  0  0  0  0  0  0  0  0999 V2000
   -1.7321   -2.0000    0.0000 C   0  0  0  0  0  0  0  0  0  0  0  0
   -1.7321   -3.0000    0.0000 C   0  0  0  0  0  0  0  0  0  0  0  0
   -0.2772   -3.5993   -0.0243 C   0  0  0  0  0  0  0  0  0  0  0  0
    0.8066   -2.7745    0.6904 C   0  0  0  0  0  0  0  0  0  0  0  0
    1.4398   -3.2095    1.6454 O   0  0  0  0  0  0  0  0  0  0  0  0
    1.0391   -1.3716    0.1223 C   0  0  0  0  0  0  0  0  0  0  0  0
    1.0356   -1.2306   -1.0945 O   0  0  0  0  0  0  0  0  0  0  0  0
    0.8537   -0.4903    1.1428 O   0  0  0  0  0  0  0  0  0  0  0  0
    0.5936    0.8294    0.7131 C   0  0  0  0  0  0  0  0  0  0  0  0
   -0.6459    1.3342    0.8104 C   0  0  0  0  0  0  0  0  0  0  0  0
   -0.9884    2.6823    0.2761 C   0  0  0  0  0  0  0  0  0  0  0  0
    0.0683    3.4206   -0.3406 O   0  0  0  0  0  0  0  0  0  0  0  0
    1.3233    2.8784   -0.2711 C   0  0  0  0  0  0  0  0  0  0  0  0
    1.6784    1.6780    0.2244 C   0  0  0  0  0  0  0  0  0  0  0  0
    2.8230    1.1668    0.3555 O   0  5  0  0  0  0  0  0  0  0  0  0
   -1.5363   -1.8170   -1.0867 H   0  0  0  0  0  0  0  0  0  0  0  0
   -2.8252   -1.8206    0.1569 H   0  0  0  0  0  0  0  0  0  0  0  0
   -1.7321   -0.9300    0.0000 H   0  0  0  0  0  0  0  0  0  0  0  0
   -2.1365   -3.4496    0.9261 H   0  0  0  0  0  0  0  0  0  0  0  0
   -2.2903   -3.5710   -0.7661 H   0  0  0  0  0  0  0  0  0  0  0  0
   -0.2988   -4.5932    0.4433 H   0  0  0  0  0  0  0  0  0  0  0  0
    0.0532   -3.7570   -1.0589 H   0  0  0  0  0  0  0  0  0  0  0  0
   -1.4429    0.7557    1.2518 H   0  0  0  0  0  0  0  0  0  0  0  0
   -1.7799    2.5697   -0.4758 H   0  0  0  0  0  0  0  0  0  0  0  0
   -1.4015    3.2991    1.0822 H   0  0  0  0  0  0  0  0  0  0  0  0
    2.0556    3.5658   -0.6739 H   0  0  0  0  0  0  0  0  0  0  0  0
  1  2  1  0  0  0  0
  1 16  1  0  0  0  0
  1 17  1  0  0  0  0
  1 18  1  0  0  0  0
  2  3  1  0  0  0  0
  2 19  1  0  0  0  0
  2 20  1  0  0  0  0
  3  4  1  0  0  0  0
  3 21  1  0  0  0  0
  3 22  1  0  0  0  0
  4  5  2  0  0  0  0
  4  6  1  0  0  0  0
  6  7  2  0  0  0  0
  6  8  1  0  0  0  0
  8  9  1  0  0  0  0
  9 14  1  0  0  0  0
  9 10  2  0  0  0  0
 10 11  1  0  0  0  0
 10 23  1  0  0  0  0
 11 12  1  0  0  0  0
 11 24  1  0  0  0  0
 11 25  1  0  0  0  0
 12 13  1  0  0  0  0
 13 14  2  0  0  0  0
 13 26  1  0  0  0  0
 14 15  1  0  0  0  0
M  CHG  1  15  -1
M  END
$$$$
