
 OpenBabel03202621302D

 40 40  0  0  1  0  0  0  0  0999 V2000
    6.0622    0.5000    0.0000 C   0  0  0  0  0  0  0  0  0  0  0  0
    6.0622    1.5000    0.0000 C   0  0  0  0  0  0  0  0  0  0  0  0
    6.4660    2.3010   -0.8375 O   0  0  0  0  0  0  0  0  0  0  0  0
    5.5348    2.0070    1.3545 C   0  0  0  0  0  0  0  0  0  0  0  0
    4.0499    1.6085    1.3266 C   0  0  0  0  0  0  0  0  0  0  0  0
    3.4786    1.0619    2.2472 O   0  0  0  0  0  0  0  0  0  0  0  0
    3.4641    2.0000    0.0000 C   0  0  2  0  0  0  0  0  0  0  0  0
    3.4641    3.0000    0.0000 C   0  0  0  0  0  0  0  0  0  0  0  0
    3.4641    4.0000    0.0000 N   0  0  0  0  0  0  0  0  0  0  0  0
    1.9517    1.7652   -0.3960 C   0  0  0  0  0  0  0  0  0  0  0  0
    1.7304    1.1876   -1.4705 O   0  0  0  0  0  0  0  0  0  0  0  0
    0.7880    2.4915    0.3871 C   0  0  2  0  0  0  0  0  0  0  0  0
    0.1987    3.8370   -0.2331 C   0  0  0  0  0  0  0  0  0  0  0  0
    1.0691    5.0908   -0.4367 C   0  0  0  0  0  0  0  0  0  0  0  0
    0.2835    6.2382   -0.7604 O   0  0  0  0  0  0  0  0  0  0  0  0
   -0.4274    1.5731    0.6729 C   0  0  0  0  0  0  0  0  0  0  0  0
   -1.4189    2.0577    1.2306 O   0  0  0  0  0  0  0  0  0  0  0  0
   -0.3148    0.0843    0.4581 C   0  0  0  0  0  0  0  0  0  0  0  0
    0.8491   -0.5243    0.9764 C   0  0  0  0  0  0  0  0  0  0  0  0
    1.1381   -1.8606    0.7455 C   0  0  0  0  0  0  0  0  0  0  0  0
    0.1984   -2.6344    0.0968 C   0  0  0  0  0  0  0  0  0  0  0  0
   -1.0002   -2.0525   -0.3399 C   0  0  0  0  0  0  0  0  0  0  0  0
   -1.3025   -0.6738   -0.2213 C   0  0  0  0  0  0  0  0  0  0  0  0
   -2.3827   -0.2123   -0.7233 O   0  5  0  0  0  0  0  0  0  0  0  0
    5.7914    0.3378   -1.0720 H   0  0  0  0  0  0  0  0  0  0  0  0
    7.1636    0.3759    0.1396 H   0  0  0  0  0  0  0  0  0  0  0  0
    6.0622   -0.5700    0.0000 H   0  0  0  0  0  0  0  0  0  0  0  0
    6.0415    1.5199    2.1920 H   0  0  0  0  0  0  0  0  0  0  0  0
    5.6591    3.0896    1.4502 H   0  0  0  0  0  0  0  0  0  0  0  0
    3.9221    1.3879   -0.7757 H   0  0  0  0  0  0  0  0  0  0  0  0
    1.1835    2.7280    1.3848 H   0  0  0  0  0  0  0  0  0  0  0  0
   -0.6103    4.1767    0.4282 H   0  0  0  0  0  0  0  0  0  0  0  0
   -0.2914    3.6132   -1.1846 H   0  0  0  0  0  0  0  0  0  0  0  0
    1.7440    4.9553   -1.2835 H   0  0  0  0  0  0  0  0  0  0  0  0
    1.6010    5.3517    0.4806 H   0  0  0  0  0  0  0  0  0  0  0  0
    0.9133    6.9789   -0.8814 H   0  0  0  0  0  0  0  0  0  0  0  0
    1.5439    0.0564    1.5618 H   0  0  0  0  0  0  0  0  0  0  0  0
    2.0751   -2.2864    1.0836 H   0  0  0  0  0  0  0  0  0  0  0  0
    0.3708   -3.6920   -0.0695 H   0  0  0  0  0  0  0  0  0  0  0  0
   -1.7394   -2.6969   -0.8176 H   0  0  0  0  0  0  0  0  0  0  0  0
  1  2  1  0  0  0  0
  1 25  1  0  0  0  0
  1 26  1  0  0  0  0
  1 27  1  0  0  0  0
  2  3  2  0  0  0  0
  2  4  1  0  0  0  0
  4  5  1  0  0  0  0
  4 28  1  0  0  0  0
  4 29  1  0  0  0  0
  5  6  2  0  0  0  0
  5  7  1  0  0  0  0
  7  8  1  0  0  0  0
  7 10  1  0  0  0  0
  7 30  1  6  0  0  0
  8  9  3  0  0  0  0
 10 11  2  0  0  0  0
 10 12  1  0  0  0  0
 12 13  1  0  0  0  0
 12 16  1  0  0  0  0
 12 31  1  6  0  0  0
 13 14  1  0  0  0  0
 13 32  1  0  0  0  0
 13 33  1  0  0  0  0
 14 15  1  0  0  0  0
 14 34  1  0  0  0  0
 14 35  1  0  0  0  0
 15 36  1  0  0  0  0
 16 17  2  0  0  0  0
 16 18  1  0  0  0  0
 18 23  2  0  0  0  0
 18 19  1  0  0  0  0
 19 20  2  0  0  0  0
 19 37  1  0  0  0  0
 20 21  1  0  0  0  0
 20 38  1  0  0  0  0
 21 22  2  0  0  0  0
 21 39  1  0  0  0  0
 22 23  1  0  0  0  0
 22 40  1  0  0  0  0
 23 24  1  0  0  0  0
M  CHG  1  24  -1
M  END
$$$$
