
 OpenBabel03202621342D

 21 20  0  0  1  0  0  0  0  0999 V2000
    2.5981    1.5000    0.0000 C   0  0  0  0  0  0  0  0  0  0  0  0
    2.5981    2.5000    0.0000 S   0  0  0  0  0  0  0  0  0  0  0  0
    1.6241    2.6952    1.3291 C   0  0  0  0  0  0  0  0  0  0  0  0
    0.8660    2.5000    0.0000 C   0  0  1  0  0  0  0  0  0  0  0  0
    0.0000    3.0000    0.0000 C   0  0  0  0  0  0  0  0  0  0  0  0
    0.6990    1.4323   -0.9488 O   0  0  0  0  0  0  0  0  0  0  0  0
    0.0000    1.0000    0.0000 C   0  0  0  0  0  0  0  0  0  0  0  0
   -0.8660    1.5000    0.0000 C   0  0  0  0  0  0  0  0  0  0  0  0
    0.2728   -0.0439    0.5939 O   0  0  0  0  0  0  0  0  0  0  0  0
    3.3907    1.3034    0.7631 H   0  0  0  0  0  0  0  0  0  0  0  0
    3.1279    1.3304   -0.9658 H   0  0  0  0  0  0  0  0  0  0  0  0
    2.5981    0.4300    0.0000 H   0  0  0  0  0  0  0  0  0  0  0  0
    1.6390    3.7029    1.7590 H   0  0  0  0  0  0  0  0  0  0  0  0
    1.5360    1.9036    2.0825 H   0  0  0  0  0  0  0  0  0  0  0  0
    1.1053    3.2002   -0.9943 H   0  0  0  0  0  0  0  0  0  0  0  0
   -0.2983    3.0890    1.1227 H   0  0  0  0  0  0  0  0  0  0  0  0
    0.2946    4.1239   -0.0346 H   0  0  0  0  0  0  0  0  0  0  0  0
   -0.9266    3.5350    0.0000 H   0  0  0  0  0  0  0  0  0  0  0  0
   -1.2437    1.2033    1.0285 H   0  0  0  0  0  0  0  0  0  0  0  0
   -1.4130    0.8265   -0.7232 H   0  0  0  0  0  0  0  0  0  0  0  0
   -1.7926    2.0350    0.0000 H   0  0  0  0  0  0  0  0  0  0  0  0
  1  2  1  0  0  0  0
  1 10  1  0  0  0  0
  1 11  1  0  0  0  0
  1 12  1  0  0  0  0
  2  3  1  0  0  0  0
  3  4  1  0  0  0  0
  3 13  1  0  0  0  0
  3 14  1  0  0  0  0
  4  5  1  0  0  0  0
  4  6  1  0  0  0  0
  4 15  1  1  0  0  0
  5 16  1  0  0  0  0
  5 17  1  0  0  0  0
  5 18  1  0  0  0  0
  6  7  1  0  0  0  0
  7  8  1  0  0  0  0
  7  9  2  0  0  0  0
  8 19  1  0  0  0  0
  8 20  1  0  0  0  0
  8 21  1  0  0  0  0
M  END
$$$$
