
 OpenBabel03202621382D

 40 41  0  0  1  0  0  0  0  0999 V2000
    2.5981   -2.5000    0.0000 C   0  0  0  0  0  0  0  0  0  0  0  0
    2.5981   -1.5000    0.0000 C   0  0  0  0  0  0  0  0  0  0  0  0
    1.6353   -0.9809   -1.1117 C   0  0  0  0  0  0  0  0  0  0  0  0
    0.3555   -1.6192   -1.0196 O   0  0  0  0  0  0  0  0  0  0  0  0
   -0.6483   -0.8782   -0.4719 C   0  0  0  0  0  0  0  0  0  0  0  0
   -1.9341   -1.2637   -0.8360 C   0  0  0  0  0  0  0  0  0  0  0  0
   -3.0181   -0.4472   -0.5217 C   0  0  0  0  0  0  0  0  0  0  0  0
   -2.8248    0.7578    0.1714 C   0  0  0  0  0  0  0  0  0  0  0  0
   -3.9733    1.7592    0.2604 C   0  0  2  0  0  0  0  0  0  0  0  0
   -3.5765    3.2457    0.0422 C   0  0  0  0  0  0  0  0  0  0  0  0
   -2.5256    3.7629    0.8669 O   0  0  0  0  0  0  0  0  0  0  0  0
   -4.7359    1.5260    1.4556 O   0  0  0  0  0  0  0  0  0  0  0  0
   -6.0862    1.4175    1.1122 C   0  0  0  0  0  0  0  0  0  0  0  0
   -6.5906    0.2388    0.7027 C   0  0  0  0  0  0  0  0  0  0  0  0
   -7.9565    0.1570    0.1113 C   0  0  0  0  0  0  0  0  0  0  0  0
   -8.5349    1.3994   -0.3107 O   0  0  0  0  0  0  0  0  0  0  0  0
   -8.0601    2.5142    0.3318 C   0  0  0  0  0  0  0  0  0  0  0  0
   -6.9366    2.6132    1.0659 C   0  0  0  0  0  0  0  0  0  0  0  0
   -6.4905    3.6013    1.7086 O   0  5  0  0  0  0  0  0  0  0  0  0
   -1.5582    1.0133    0.7068 C   0  0  0  0  0  0  0  0  0  0  0  0
   -0.4711    0.2093    0.3755 C   0  0  0  0  0  0  0  0  0  0  0  0
    1.7326   -2.6985    0.6830 H   0  0  0  0  0  0  0  0  0  0  0  0
    3.5182   -2.6790    0.6106 H   0  0  0  0  0  0  0  0  0  0  0  0
    2.5981   -3.5700    0.0000 H   0  0  0  0  0  0  0  0  0  0  0  0
    2.3431   -0.9432    0.9206 H   0  0  0  0  0  0  0  0  0  0  0  0
    3.5456   -1.0049   -0.2826 H   0  0  0  0  0  0  0  0  0  0  0  0
    1.5858    0.1112   -1.1358 H   0  0  0  0  0  0  0  0  0  0  0  0
    2.0416   -1.2668   -2.0976 H   0  0  0  0  0  0  0  0  0  0  0  0
   -2.0879   -2.1671   -1.4199 H   0  0  0  0  0  0  0  0  0  0  0  0
   -4.0090   -0.7243   -0.8695 H   0  0  0  0  0  0  0  0  0  0  0  0
   -4.5935    1.5415   -0.6253 H   0  0  0  0  0  0  0  0  0  0  0  0
   -3.2362    3.3689   -0.9923 H   0  0  0  0  0  0  0  0  0  0  0  0
   -4.4396    3.8983    0.1746 H   0  0  0  0  0  0  0  0  0  0  0  0
   -2.7324    4.7064    0.9762 H   0  0  0  0  0  0  0  0  0  0  0  0
   -5.9825   -0.6537    0.7399 H   0  0  0  0  0  0  0  0  0  0  0  0
   -8.6470   -0.3186    0.8170 H   0  0  0  0  0  0  0  0  0  0  0  0
   -7.9146   -0.4780   -0.7801 H   0  0  0  0  0  0  0  0  0  0  0  0
   -8.7140    3.3615    0.1684 H   0  0  0  0  0  0  0  0  0  0  0  0
   -1.3887    1.8733    1.3473 H   0  0  0  0  0  0  0  0  0  0  0  0
    0.5005    0.4862    0.7662 H   0  0  0  0  0  0  0  0  0  0  0  0
  1  2  1  0  0  0  0
  1 22  1  0  0  0  0
  1 23  1  0  0  0  0
  1 24  1  0  0  0  0
  2  3  1  0  0  0  0
  2 25  1  0  0  0  0
  2 26  1  0  0  0  0
  3  4  1  0  0  0  0
  3 27  1  0  0  0  0
  3 28  1  0  0  0  0
  4  5  1  0  0  0  0
  5 21  2  0  0  0  0
  5  6  1  0  0  0  0
  6  7  2  0  0  0  0
  6 29  1  0  0  0  0
  7  8  1  0  0  0  0
  7 30  1  0  0  0  0
  8  9  1  0  0  0  0
  8 20  2  0  0  0  0
  9 10  1  0  0  0  0
  9 12  1  0  0  0  0
  9 31  1  6  0  0  0
 10 11  1  0  0  0  0
 10 32  1  0  0  0  0
 10 33  1  0  0  0  0
 11 34  1  0  0  0  0
 12 13  1  0  0  0  0
 13 18  1  0  0  0  0
 13 14  2  0  0  0  0
 14 15  1  0  0  0  0
 14 35  1  0  0  0  0
 15 16  1  0  0  0  0
 15 36  1  0  0  0  0
 15 37  1  0  0  0  0
 16 17  1  0  0  0  0
 17 18  2  0  0  0  0
 17 38  1  0  0  0  0
 18 19  1  0  0  0  0
 20 21  1  0  0  0  0
 20 39  1  0  0  0  0
 21 40  1  0  0  0  0
M  CHG  1  19  -1
M  END
$$$$
