
 OpenBabel03202621362D

 17 16  0  0  0  0  0  0  0  0999 V2000
    5.1962   -1.0000    0.0000 C   0  0  0  0  0  0  0  0  0  0  0  0
    5.1962    0.0000    0.0000 S   0  0  0  0  0  0  0  0  0  0  0  0
    3.8717    1.0523   -0.0000 C   0  0  0  0  0  0  0  0  0  0  0  0
    3.9390    2.2658   -0.0000 O   0  0  0  0  0  0  0  0  0  0  0  0
    2.5764    0.2903   -0.0000 C   0  0  0  0  0  0  0  0  0  0  0  0
    1.4910    0.9616   -0.0000 N   0  0  0  0  0  0  0  0  0  0  0  0
    0.3527    0.2252   -0.0000 N   0  0  0  0  0  0  0  0  0  0  0  0
   -0.8298    0.9079    0.0000 C   0  0  0  0  0  0  0  0  0  0  0  0
   -0.6418    2.2520    0.0000 N   0  0  0  0  0  0  0  0  0  0  0  0
   -1.9341    0.3656    0.0000 O   0  0  0  0  0  0  0  0  0  0  0  0
    4.2032   -1.4188    0.0000 H   0  0  0  0  0  0  0  0  0  0  0  0
    6.2478   -1.3032   -0.0000 H   0  0  0  0  0  0  0  0  0  0  0  0
    5.1962   -2.0700    0.0000 H   0  0  0  0  0  0  0  0  0  0  0  0
    2.5611   -0.8059    0.0000 H   0  0  0  0  0  0  0  0  0  0  0  0
    0.3422   -0.7886    0.0000 H   0  0  0  0  0  0  0  0  0  0  0  0
    0.3324    2.5380   -0.0000 H   0  0  0  0  0  0  0  0  0  0  0  0
   -1.4005    2.9128   -0.0000 H   0  0  0  0  0  0  0  0  0  0  0  0
  1  2  1  0  0  0  0
  1 11  1  0  0  0  0
  1 12  1  0  0  0  0
  1 13  1  0  0  0  0
  2  3  1  0  0  0  0
  3  4  2  0  0  0  0
  3  5  1  0  0  0  0
  5  6  2  3  0  0  0
  5 14  1  0  0  0  0
  6  7  1  0  0  0  0
  7  8  1  0  0  0  0
  7 15  1  0  0  0  0
  8  9  1  0  0  0  0
  8 10  2  0  0  0  0
  9 16  1  0  0  0  0
  9 17  1  0  0  0  0
M  END
$$$$
