
 OpenBabel03202621352D

 48 49  0  0  1  0  0  0  0  0999 V2000
   -1.3489   -2.5909   -1.2944 C   0  0  0  0  0  0  0  0  0  0  0  0
   -1.3989   -1.5124   -0.1813 C   0  0  0  0  0  0  0  0  0  0  0  0
   -1.6083   -2.2673    1.1466 C   0  0  0  0  0  0  0  0  0  0  0  0
   -2.4964   -0.5270   -0.4193 C   0  0  0  0  0  0  0  0  0  0  0  0
   -2.5682    0.6207    0.6083 C   0  0  2  0  0  0  0  0  0  0  0  0
   -3.4722    1.6815    0.1338 N   0  0  0  0  0  0  0  0  0  0  0  0
   -4.5363    1.6487   -0.7452 C   0  0  0  0  0  0  0  0  0  0  0  0
   -4.9868    2.7024   -1.1794 O   0  0  0  0  0  0  0  0  0  0  0  0
   -4.8898    0.4222   -1.2391 O   0  0  0  0  0  0  0  0  0  0  0  0
   -5.9684   -0.2792   -0.6407 C   0  0  0  0  0  0  0  0  0  0  0  0
   -5.8957   -1.6066   -0.4662 C   0  0  0  0  0  0  0  0  0  0  0  0
   -6.8237   -2.4191    0.1257 O   0  0  0  0  0  0  0  0  0  0  0  0
   -8.1506   -1.9277   -0.0280 C   0  0  0  0  0  0  0  0  0  0  0  0
   -8.3083   -0.4823    0.3919 C   0  0  0  0  0  0  0  0  0  0  0  0
   -7.2030    0.3872   -0.1514 C   0  0  0  0  0  0  0  0  0  0  0  0
   -7.3200    1.6112   -0.1330 O   0  0  0  0  0  0  0  0  0  0  0  0
   -1.1339    1.2063    1.0543 C   0  0  0  0  0  0  0  0  0  0  0  0
    0.0000    1.0000    0.0000 C   0  0  2  0  0  0  0  0  0  0  0  0
    1.0000    1.0000    0.0000 C   0  0  0  0  0  0  0  0  0  0  0  0
   -0.4928    1.8437   -1.2663 C   0  0  0  0  0  0  0  0  0  0  0  0
   -0.1748    3.2670   -1.0043 N   0  0  0  0  0  0  0  0  0  0  0  0
   -0.6142    4.0149   -1.7865 C   0  0  0  0  0  0  0  0  0  0  0  0
   -1.0504    4.7749   -2.5755 O   0  0  0  0  0  0  0  0  0  0  0  0
   -0.1099   -0.7253   -0.2359 C   0  0  0  0  0  0  0  0  0  0  0  0
   -2.2916   -3.1408   -1.3731 H   0  0  0  0  0  0  0  0  0  0  0  0
   -1.1394   -2.1511   -2.2771 H   0  0  0  0  0  0  0  0  0  0  0  0
   -0.5524   -3.3192   -1.0903 H   0  0  0  0  0  0  0  0  0  0  0  0
   -1.7189   -1.5969    2.0022 H   0  0  0  0  0  0  0  0  0  0  0  0
   -0.7705   -2.9404    1.3610 H   0  0  0  0  0  0  0  0  0  0  0  0
   -2.5133   -2.8868    1.0947 H   0  0  0  0  0  0  0  0  0  0  0  0
   -3.4122   -1.0980   -0.3845 H   0  0  0  0  0  0  0  0  0  0  0  0
   -2.4166   -0.1444   -1.4449 H   0  0  0  0  0  0  0  0  0  0  0  0
   -3.0484    0.2418    1.5192 H   0  0  0  0  0  0  0  0  0  0  0  0
   -3.3574    2.6069    0.5279 H   0  0  0  0  0  0  0  0  0  0  0  0
   -5.0392   -2.2094   -0.7416 H   0  0  0  0  0  0  0  0  0  0  0  0
   -8.4478   -2.0773   -1.0734 H   0  0  0  0  0  0  0  0  0  0  0  0
   -8.8033   -2.5603    0.5833 H   0  0  0  0  0  0  0  0  0  0  0  0
   -9.2657   -0.1080    0.0185 H   0  0  0  0  0  0  0  0  0  0  0  0
   -8.2857   -0.3936    1.4821 H   0  0  0  0  0  0  0  0  0  0  0  0
   -0.8507    0.6997    1.9864 H   0  0  0  0  0  0  0  0  0  0  0  0
   -1.2370    2.2683    1.3107 H   0  0  0  0  0  0  0  0  0  0  0  0
    1.3398    0.5756   -0.9713 H   0  0  0  0  0  0  0  0  0  0  0  0
    1.2491    0.5637    0.9914 H   0  0  0  0  0  0  0  0  0  0  0  0
    2.0700    1.0000    0.0000 H   0  0  0  0  0  0  0  0  0  0  0  0
   -1.5574    1.7416   -1.4698 H   0  0  0  0  0  0  0  0  0  0  0  0
    0.0062    1.5171   -2.1931 H   0  0  0  0  0  0  0  0  0  0  0  0
    0.3717   -0.9661   -1.1995 H   0  0  0  0  0  0  0  0  0  0  0  0
    0.5452   -1.2057    0.5175 H   0  0  0  0  0  0  0  0  0  0  0  0
  1  2  1  0  0  0  0
  1 25  1  0  0  0  0
  1 26  1  0  0  0  0
  1 27  1  0  0  0  0
  2 24  1  0  0  0  0
  2  3  1  0  0  0  0
  2  4  1  0  0  0  0
  3 28  1  0  0  0  0
  3 29  1  0  0  0  0
  3 30  1  0  0  0  0
  4  5  1  0  0  0  0
  4 31  1  0  0  0  0
  4 32  1  0  0  0  0
  5  6  1  0  0  0  0
  5 17  1  0  0  0  0
  5 33  1  1  0  0  0
  6  7  1  0  0  0  0
  6 34  1  0  0  0  0
  7  8  2  0  0  0  0
  7  9  1  0  0  0  0
  9 10  1  0  0  0  0
 10 15  1  0  0  0  0
 10 11  2  0  0  0  0
 11 12  1  0  0  0  0
 11 35  1  0  0  0  0
 12 13  1  0  0  0  0
 13 14  1  0  0  0  0
 13 36  1  0  0  0  0
 13 37  1  0  0  0  0
 14 15  1  0  0  0  0
 14 38  1  0  0  0  0
 14 39  1  0  0  0  0
 15 16  2  0  0  0  0
 17 18  1  0  0  0  0
 17 40  1  0  0  0  0
 17 41  1  0  0  0  0
 18 19  1  1  0  0  0
 18 20  1  0  0  0  0
 18 24  1  0  0  0  0
 19 42  1  0  0  0  0
 19 43  1  0  0  0  0
 19 44  1  0  0  0  0
 20 21  1  0  0  0  0
 20 45  1  0  0  0  0
 20 46  1  0  0  0  0
 21 22  2  0  0  0  0
 22 23  2  0  0  0  0
 24 47  1  0  0  0  0
 24 48  1  0  0  0  0
M  END
$$$$
