
 OpenBabel03202621282D

 36 37  0  0  1  0  0  0  0  0999 V2000
    8.0222   -0.6807    0.0000 C   0  0  0  0  0  0  0  0  0  0  0  0
    7.7132    0.2703    0.0000 C   0  0  0  0  0  0  0  0  0  0  0  0
    6.7351    0.4782    0.0000 C   0  0  0  0  0  0  0  0  0  0  0  0
    6.4260    1.4293    0.0000 C   0  0  0  0  0  0  0  0  0  0  0  0
    7.0952    2.1724    0.0000 O   0  0  0  0  0  0  0  0  0  0  0  0
    5.4479    1.6372    0.0000 N   0  0  0  0  0  0  0  0  0  0  0  0
    5.1389    2.5882    0.0000 C   0  0  0  0  0  0  0  0  0  0  0  0
    4.7788    0.8940    0.0000 C   0  0  2  0  0  0  0  0  0  0  0  0
    3.8006    1.1020    0.0000 C   0  0  0  0  0  0  0  0  0  0  0  0
    5.0878   -0.0570    0.0000 C   0  0  0  0  0  0  0  0  0  0  0  0
    6.0388   -0.3660    0.0000 C   0  0  0  0  0  0  0  0  0  0  0  0
    6.0388   -1.3660    0.0000 N   0  0  0  0  0  0  0  0  0  0  0  0
    5.0878   -1.6750    0.0000 N   0  0  0  0  0  0  0  0  0  0  0  0
    4.5000   -0.8660    0.0000 N   0  0  0  0  0  0  0  0  0  0  0  0
    3.5000   -0.8660    0.0000 C   0  0  0  0  0  0  0  0  0  0  0  0
    3.0000   -1.7321    0.0000 C   0  0  0  0  0  0  0  0  0  0  0  0
    2.0000   -1.7321    0.0000 C   0  0  2  0  0  0  0  0  0  0  0  0
    1.5000   -0.8660    0.0000 C   0  0  0  0  0  0  0  0  0  0  0  0
    2.0000    0.0000    0.0000 O   0  0  0  0  0  0  0  0  0  0  0  0
    0.5000   -0.8660    0.0000 C   0  0  0  0  0  0  0  0  0  0  0  0
    0.0000   -1.7321    0.0000 C   0  0  0  0  0  0  0  0  0  0  0  0
   -1.0000   -1.7321    0.0000 C   0  0  0  0  0  0  0  0  0  0  0  0
   -1.5000   -0.8660    0.0000 C   0  0  0  0  0  0  0  0  0  0  0  0
   -1.0000   -0.0000    0.0000 C   0  0  0  0  0  0  0  0  0  0  0  0
   -0.0000   -0.0000    0.0000 C   0  0  0  0  0  0  0  0  0  0  0  0
    0.5000    0.8660    0.0000 O   0  5  0  0  0  0  0  0  0  0  0  0
    1.5000   -2.5981    0.0000 C   0  0  0  0  0  0  0  0  0  0  0  0
    0.5000   -2.5981    0.0000 O   0  0  0  0  0  0  0  0  0  0  0  0
    2.0000   -3.4641    0.0000 C   0  0  1  0  0  0  0  0  0  0  0  0
    3.0000   -3.4641    0.0000 O   0  0  0  0  0  0  0  0  0  0  0  0
    1.5000   -4.3301    0.0000 C   0  0  0  0  0  0  0  0  0  0  0  0
    0.5000   -4.3301    0.0000 O   0  0  0  0  0  0  0  0  0  0  0  0
    2.0000   -5.1962    0.0000 C   0  0  0  0  0  0  0  0  0  0  0  0
    3.0000   -5.1962    0.0000 C   0  0  0  0  0  0  0  0  0  0  0  0
    3.5000   -6.0622    0.0000 C   0  0  0  0  0  0  0  0  0  0  0  0
    3.5000   -4.3301    0.0000 O   0  0  0  0  0  0  0  0  0  0  0  0
  1  2  1  0  0  0  0
  2  3  1  0  0  0  0
  3  4  1  0  0  0  0
  4  5  2  0  0  0  0
  4  6  1  0  0  0  0
  6  7  1  0  0  0  0
  6  8  1  0  0  0  0
  8  9  1  1  0  0  0
  8 10  1  0  0  0  0
 10 14  1  0  0  0  0
 10 11  2  0  0  0  0
 11 12  1  0  0  0  0
 12 13  2  0  0  0  0
 13 14  1  0  0  0  0
 14 15  1  0  0  0  0
 15 16  1  0  0  0  0
 17 16  1  1  0  0  0
 17 18  1  0  0  0  0
 17 27  1  0  0  0  0
 18 19  2  0  0  0  0
 18 20  1  0  0  0  0
 20 25  2  0  0  0  0
 20 21  1  0  0  0  0
 21 22  2  0  0  0  0
 22 23  1  0  0  0  0
 23 24  2  0  0  0  0
 24 25  1  0  0  0  0
 25 26  1  0  0  0  0
 27 28  2  0  0  0  0
 27 29  1  0  0  0  0
 29 30  1  1  0  0  0
 29 31  1  0  0  0  0
 31 32  2  0  0  0  0
 31 33  1  0  0  0  0
 33 34  1  0  0  0  0
 34 35  1  0  0  0  0
 34 36  2  0  0  0  0
M  CHG  1  26  -1
M  END
$$$$
