
 OpenBabel03202621332D

 20 20  0  0  0  0  0  0  0  0999 V2000
    2.5032   -0.9479    0.0000 C   0  0  0  0  0  0  0  0  0  0  0  0
    1.7601   -0.2788    0.0000 C   0  0  0  0  0  0  0  0  0  0  0  0
    0.2899   -0.5877   -0.0613 C   0  0  0  0  0  0  0  0  0  0  0  0
   -0.1352   -1.8763   -0.0824 O   0  0  0  0  0  0  0  0  0  0  0  0
   -1.5228   -1.8925   -0.1138 N   0  0  0  0  0  0  0  0  0  0  0  0
   -1.8977   -0.6093   -0.1113 C   0  0  0  0  0  0  0  0  0  0  0  0
   -0.7982    0.2687   -0.0856 C   0  0  0  0  0  0  0  0  0  0  0  0
   -0.7490    1.7567   -0.0741 C   0  0  0  0  0  0  0  0  0  0  0  0
   -2.0462    2.3588   -0.1175 O   0  0  0  0  0  0  0  0  0  0  0  0
   -1.9883    3.7163   -0.1027 C   0  0  0  0  0  0  0  0  0  0  0  0
   -0.9782    4.3993   -0.0581 O   0  0  0  0  0  0  0  0  0  0  0  0
    2.3177   -1.4387    0.9879 H   0  0  0  0  0  0  0  0  0  0  0  0
    3.3840   -0.2633    0.1053 H   0  0  0  0  0  0  0  0  0  0  0  0
    3.2984   -1.6639    0.0000 H   0  0  0  0  0  0  0  0  0  0  0  0
    1.8325    0.3885   -0.8817 H   0  0  0  0  0  0  0  0  0  0  0  0
    1.7755    0.4565    0.8345 H   0  0  0  0  0  0  0  0  0  0  0  0
   -2.9526   -0.3727   -0.1270 H   0  0  0  0  0  0  0  0  0  0  0  0
   -0.1707    2.0940   -0.9445 H   0  0  0  0  0  0  0  0  0  0  0  0
   -0.2350    2.0829    0.8396 H   0  0  0  0  0  0  0  0  0  0  0  0
   -3.0117    4.1213   -0.1378 H   0  0  0  0  0  0  0  0  0  0  0  0
  1  2  1  0  0  0  0
  1 12  1  0  0  0  0
  1 13  1  0  0  0  0
  1 14  1  0  0  0  0
  2  3  1  0  0  0  0
  2 15  1  0  0  0  0
  2 16  1  0  0  0  0
  3  7  2  0  0  0  0
  3  4  1  0  0  0  0
  4  5  1  0  0  0  0
  5  6  2  0  0  0  0
  6  7  1  0  0  0  0
  6 17  1  0  0  0  0
  7  8  1  0  0  0  0
  8  9  1  0  0  0  0
  8 18  1  0  0  0  0
  8 19  1  0  0  0  0
  9 10  1  0  0  0  0
 10 11  2  0  0  0  0
 10 20  1  0  0  0  0
M  END
$$$$
