
 OpenBabel03202621382D

 54 55  0  0  1  0  0  0  0  0999 V2000
   -9.5738   -0.4067    0.0000 C   0  0  0  0  0  0  0  0  0  0  0  0
   -9.5738   -1.4067    0.0000 C   0  0  0  0  0  0  0  0  0  0  0  0
  -10.6553   -1.9995   -0.2528 O   0  0  0  0  0  0  0  0  0  0  0  0
   -8.4923   -2.3959    0.1319 C   0  0  0  0  0  0  0  0  0  0  0  0
   -8.0870   -2.8776   -1.2317 C   0  0  0  0  0  0  0  0  0  0  0  0
   -8.4304   -2.3088   -2.2634 O   0  0  0  0  0  0  0  0  0  0  0  0
   -7.0868   -4.0165   -1.2237 C   0  0  2  0  0  0  0  0  0  0  0  0
   -7.3527   -5.0720   -2.1067 O   0  0  0  0  0  0  0  0  0  0  0  0
   -5.7292   -3.3299   -1.4049 C   0  0  0  0  0  0  0  0  0  0  0  0
   -5.2345   -3.1019   -2.5057 O   0  0  0  0  0  0  0  0  0  0  0  0
   -5.0863   -2.8562   -0.1194 C   0  0  2  0  0  0  0  0  0  0  0  0
   -4.5393   -4.0931    0.6254 C   0  0  0  0  0  0  0  0  0  0  0  0
   -3.3227   -4.7984    0.0431 C   0  0  0  0  0  0  0  0  0  0  0  0
   -2.1610   -4.0440    0.3138 O   0  0  0  0  0  0  0  0  0  0  0  0
   -4.1647   -1.6801   -0.3348 C   0  0  0  0  0  0  0  0  0  0  0  0
   -3.0077   -1.8469   -0.7137 O   0  0  0  0  0  0  0  0  0  0  0  0
   -4.6326   -0.2591   -0.1096 C   0  0  0  0  0  0  0  0  0  0  0  0
   -5.8827    0.2788   -0.3865 C   0  0  0  0  0  0  0  0  0  0  0  0
   -6.0807    1.6740   -0.3022 C   0  0  0  0  0  0  0  0  0  0  0  0
   -4.9953    2.5285   -0.0813 C   0  0  0  0  0  0  0  0  0  0  0  0
   -3.7683    1.9983    0.2768 C   0  0  0  0  0  0  0  0  0  0  0  0
   -3.6768    0.6081    0.3994 C   0  0  0  0  0  0  0  0  0  0  0  0
   -2.9856    0.0186    1.4964 O   0  0  0  0  0  0  0  0  0  0  0  0
   -1.6981    0.4003    1.7084 C   0  0  0  0  0  0  0  0  0  0  0  0
   -1.3239    1.3517    2.3811 O   0  0  0  0  0  0  0  0  0  0  0  0
   -0.8213   -0.5115    0.9329 C   0  0  0  0  0  0  0  0  0  0  0  0
   -0.7766   -1.8823    1.1098 N   0  0  0  0  0  0  0  0  0  0  0  0
    0.0839   -2.3282    0.1272 N   0  0  0  0  0  0  0  0  0  0  0  0
    0.6718   -1.2380   -0.5020 C   0  0  0  0  0  0  0  0  0  0  0  0
    1.6252   -1.2713   -1.2399 O   0  0  0  0  0  0  0  0  0  0  0  0
    0.0000    0.0000    0.0000 C   0  0  0  0  0  0  0  0  0  0  0  0
    0.2079    0.9781    0.0000 C   0  0  0  0  0  0  0  0  0  0  0  0
   -8.7517   -0.2515    0.7380 H   0  0  0  0  0  0  0  0  0  0  0  0
  -10.4830   -0.2339    0.6393 H   0  0  0  0  0  0  0  0  0  0  0  0
   -9.5738    0.6633    0.0000 H   0  0  0  0  0  0  0  0  0  0  0  0
   -8.8882   -3.2518    0.6976 H   0  0  0  0  0  0  0  0  0  0  0  0
   -7.6765   -1.9914    0.7223 H   0  0  0  0  0  0  0  0  0  0  0  0
   -7.1225   -4.4586   -0.2244 H   0  0  0  0  0  0  0  0  0  0  0  0
   -8.1555   -5.5300   -1.8009 H   0  0  0  0  0  0  0  0  0  0  0  0
   -5.8573   -2.4671    0.5395 H   0  0  0  0  0  0  0  0  0  0  0  0
   -4.3489   -3.8163    1.6655 H   0  0  0  0  0  0  0  0  0  0  0  0
   -5.3237   -4.8615    0.6538 H   0  0  0  0  0  0  0  0  0  0  0  0
   -3.3998   -4.9979   -1.0229 H   0  0  0  0  0  0  0  0  0  0  0  0
   -3.1947   -5.7556    0.5595 H   0  0  0  0  0  0  0  0  0  0  0  0
   -2.0218   -3.4652   -0.4714 H   0  0  0  0  0  0  0  0  0  0  0  0
   -6.7279   -0.3350   -0.6627 H   0  0  0  0  0  0  0  0  0  0  0  0
   -7.0731    2.1038   -0.4381 H   0  0  0  0  0  0  0  0  0  0  0  0
   -5.1347    3.6118   -0.1250 H   0  0  0  0  0  0  0  0  0  0  0  0
   -2.9451    2.6571    0.5304 H   0  0  0  0  0  0  0  0  0  0  0  0
   -1.7120   -2.3063    1.0463 H   0  0  0  0  0  0  0  0  0  0  0  0
    0.5630   -3.2258    0.2294 H   0  0  0  0  0  0  0  0  0  0  0  0
    1.3081    0.9292    0.1800 H   0  0  0  0  0  0  0  0  0  0  0  0
    0.0123    1.1727   -1.0796 H   0  0  0  0  0  0  0  0  0  0  0  0
    0.4304    2.0247    0.0000 H   0  0  0  0  0  0  0  0  0  0  0  0
  1  2  1  0  0  0  0
  1 33  1  0  0  0  0
  1 34  1  0  0  0  0
  1 35  1  0  0  0  0
  2  3  2  0  0  0  0
  2  4  1  0  0  0  0
  4  5  1  0  0  0  0
  4 36  1  0  0  0  0
  4 37  1  0  0  0  0
  5  6  2  0  0  0  0
  5  7  1  0  0  0  0
  7  8  1  0  0  0  0
  7  9  1  0  0  0  0
  7 38  1  6  0  0  0
  8 39  1  0  0  0  0
  9 10  2  0  0  0  0
  9 11  1  0  0  0  0
 11 12  1  0  0  0  0
 11 15  1  0  0  0  0
 11 40  1  6  0  0  0
 12 13  1  0  0  0  0
 12 41  1  0  0  0  0
 12 42  1  0  0  0  0
 13 14  1  0  0  0  0
 13 43  1  0  0  0  0
 13 44  1  0  0  0  0
 14 45  1  0  0  0  0
 15 16  2  0  0  0  0
 15 17  1  0  0  0  0
 17 22  2  0  0  0  0
 17 18  1  0  0  0  0
 18 19  2  0  0  0  0
 18 46  1  0  0  0  0
 19 20  1  0  0  0  0
 19 47  1  0  0  0  0
 20 21  2  0  0  0  0
 20 48  1  0  0  0  0
 21 22  1  0  0  0  0
 21 49  1  0  0  0  0
 22 23  1  0  0  0  0
 23 24  1  0  0  0  0
 24 25  2  0  0  0  0
 24 26  1  0  0  0  0
 26 31  2  0  0  0  0
 26 27  1  0  0  0  0
 27 28  1  0  0  0  0
 27 50  1  0  0  0  0
 28 29  1  0  0  0  0
 28 51  1  0  0  0  0
 29 30  2  0  0  0  0
 29 31  1  0  0  0  0
 31 32  1  0  0  0  0
 32 52  1  0  0  0  0
 32 53  1  0  0  0  0
 32 54  1  0  0  0  0
M  END
$$$$
