
 OpenBabel03202621342D

 39 40  0  0  1  0  0  0  0  0999 V2000
   -1.4951   -2.1371    0.0000 C   0  0  0  0  0  0  0  0  0  0  0  0
   -0.8259   -2.8803    0.0000 C   0  0  0  0  0  0  0  0  0  0  0  0
    0.2956   -2.2104   -0.3132 N   0  0  0  0  0  0  0  0  0  0  0  0
    0.8213   -3.4155    0.0000 C   0  0  0  0  0  0  0  0  0  0  0  0
    1.7995   -3.2076    0.0000 C   0  0  0  0  0  0  0  0  0  0  0  0
    0.7261   -0.8856    0.1857 C   0  0  0  0  0  0  0  0  0  0  0  0
    1.5457   -0.7387    1.0923 O   0  0  0  0  0  0  0  0  0  0  0  0
    0.0791    0.3692   -0.5592 C   0  0  2  0  0  0  0  0  0  0  0  0
   -1.3364    0.5714   -0.1102 C   0  0  0  0  0  0  0  0  0  0  0  0
   -1.7350    1.9942    0.1017 C   0  0  1  0  0  0  0  0  0  0  0  0
   -3.1359    2.1958   -0.2649 N   0  0  0  0  0  0  0  0  0  0  0  0
   -4.0308    1.2247   -0.6914 C   0  0  0  0  0  0  0  0  0  0  0  0
   -5.2247    1.5411   -0.0955 C   0  0  0  0  0  0  0  0  0  0  0  0
   -6.4499    0.7087    0.0139 C   0  0  0  0  0  0  0  0  0  0  0  0
   -5.0954    2.7621    0.5025 N   0  0  0  0  0  0  0  0  0  0  0  0
   -3.8354    3.1714    0.3594 N   0  0  0  0  0  0  0  0  0  0  0  0
   -0.5437    2.6727   -0.5544 C   0  0  0  0  0  0  0  0  0  0  0  0
    0.6240    1.7334   -0.3102 N   0  0  0  0  0  0  0  0  0  0  0  0
   -1.5237   -1.8927    1.1042 H   0  0  0  0  0  0  0  0  0  0  0  0
   -2.4528   -2.7066   -0.1724 H   0  0  0  0  0  0  0  0  0  0  0  0
   -2.2111   -1.3419    0.0000 H   0  0  0  0  0  0  0  0  0  0  0  0
   -0.9931   -3.5621    0.8873 H   0  0  0  0  0  0  0  0  0  0  0  0
   -1.0639   -3.5450   -0.8791 H   0  0  0  0  0  0  0  0  0  0  0  0
    0.6686   -3.7255    1.0741 H   0  0  0  0  0  0  0  0  0  0  0  0
    0.5575   -4.2949   -0.6498 H   0  0  0  0  0  0  0  0  0  0  0  0
    2.2272   -4.1929    0.3474 H   0  0  0  0  0  0  0  0  0  0  0  0
    2.0234   -3.1929   -1.1111 H   0  0  0  0  0  0  0  0  0  0  0  0
    2.8461   -2.9852    0.0000 H   0  0  0  0  0  0  0  0  0  0  0  0
    0.1464    0.1746   -1.6375 H   0  0  0  0  0  0  0  0  0  0  0  0
   -1.8940    0.1525   -0.9425 H   0  0  0  0  0  0  0  0  0  0  0  0
   -1.5155    0.1153    0.8749 H   0  0  0  0  0  0  0  0  0  0  0  0
   -1.6901    2.2075    1.1819 H   0  0  0  0  0  0  0  0  0  0  0  0
   -3.7611    0.3278   -1.2247 H   0  0  0  0  0  0  0  0  0  0  0  0
   -7.2911    1.2691    0.4310 H   0  0  0  0  0  0  0  0  0  0  0  0
   -6.2616   -0.1500    0.6710 H   0  0  0  0  0  0  0  0  0  0  0  0
   -6.7479    0.3104   -0.9620 H   0  0  0  0  0  0  0  0  0  0  0  0
   -0.6933    2.8113   -1.6306 H   0  0  0  0  0  0  0  0  0  0  0  0
   -0.3417    3.6492   -0.1036 H   0  0  0  0  0  0  0  0  0  0  0  0
    0.9012    1.7828    0.6762 H   0  0  0  0  0  0  0  0  0  0  0  0
  1  2  1  0  0  0  0
  1 19  1  0  0  0  0
  1 20  1  0  0  0  0
  1 21  1  0  0  0  0
  2  3  1  0  0  0  0
  2 22  1  0  0  0  0
  2 23  1  0  0  0  0
  3  4  1  0  0  0  0
  3  6  1  0  0  0  0
  4  5  1  0  0  0  0
  4 24  1  0  0  0  0
  4 25  1  0  0  0  0
  5 26  1  0  0  0  0
  5 27  1  0  0  0  0
  5 28  1  0  0  0  0
  6  7  2  0  0  0  0
  8  6  1  0  0  0  0
  8  9  1  0  0  0  0
  8 18  1  0  0  0  0
  8 29  1  1  0  0  0
  9 30  1  0  0  0  0
  9 31  1  0  0  0  0
 10  9  1  0  0  0  0
 10 11  1  0  0  0  0
 10 17  1  0  0  0  0
 10 32  1  6  0  0  0
 11 16  1  0  0  0  0
 11 12  1  0  0  0  0
 12 13  2  0  0  0  0
 12 33  1  0  0  0  0
 13 14  1  0  0  0  0
 13 15  1  0  0  0  0
 14 34  1  0  0  0  0
 14 35  1  0  0  0  0
 14 36  1  0  0  0  0
 15 16  2  0  0  0  0
 17 18  1  0  0  0  0
 17 37  1  0  0  0  0
 17 38  1  0  0  0  0
 18 39  1  0  0  0  0
M  END
$$$$
