
 OpenBabel03202621362D

 38 39  0  0  1  0  0  0  0  0999 V2000
   -0.8660    2.5000    0.0000 C   0  0  0  0  0  0  0  0  0  0  0  0
   -0.8660    1.5000    0.0000 O   0  0  0  0  0  0  0  0  0  0  0  0
    0.1077    0.9379   -0.8748 C   0  0  0  0  0  0  0  0  0  0  0  0
    1.2683    1.7651   -0.6904 C   0  0  0  0  0  0  0  0  0  0  0  0
    1.8287    1.5890    0.5532 C   0  0  0  0  0  0  0  0  0  0  0  0
    1.6808    0.2508    1.0126 C   0  0  0  0  0  0  0  0  0  0  0  0
    2.5981   -0.5000    0.0000 C   0  0  2  0  0  0  0  0  0  0  0  0
    2.5981   -1.5000    0.0000 C   0  0  0  0  0  0  0  0  0  0  0  0
    3.9933    0.1147    0.0638 N   0  0  0  0  0  0  0  0  0  0  0  0
    5.0311   -0.0969    0.9165 C   0  0  0  0  0  0  0  0  0  0  0  0
    5.0016   -0.7478    2.4447 S   0  0  0  0  0  0  0  0  0  0  0  0
    6.1816    0.4156    0.3759 O   0  0  0  0  0  0  0  0  0  0  0  0
    7.2537   -0.4877    0.2316 C   0  0  0  0  0  0  0  0  0  0  0  0
    8.4972   -0.1531    0.5942 C   0  0  0  0  0  0  0  0  0  0  0  0
    9.6093   -0.9495    0.5538 O   0  0  0  0  0  0  0  0  0  0  0  0
    9.4657   -2.1840   -0.1579 C   0  0  0  0  0  0  0  0  0  0  0  0
    8.1226   -2.8563    0.0481 C   0  0  0  0  0  0  0  0  0  0  0  0
    7.0512   -1.8636   -0.2988 C   0  0  0  0  0  0  0  0  0  0  0  0
    6.0498   -2.1686   -0.9403 O   0  0  0  0  0  0  0  0  0  0  0  0
    0.4521   -0.4649    0.9355 C   0  0  0  0  0  0  0  0  0  0  0  0
   -0.1552   -0.3329   -0.2951 C   0  0  0  0  0  0  0  0  0  0  0  0
   -0.8935    2.6811    1.0960 H   0  0  0  0  0  0  0  0  0  0  0  0
   -1.8945    2.6803   -0.3783 H   0  0  0  0  0  0  0  0  0  0  0  0
   -0.8660    3.5700    0.0000 H   0  0  0  0  0  0  0  0  0  0  0  0
    1.4480    2.6354   -1.3075 H   0  0  0  0  0  0  0  0  0  0  0  0
    2.6458    2.2166    0.8928 H   0  0  0  0  0  0  0  0  0  0  0  0
    2.3823   -0.1327   -1.0245 H   0  0  0  0  0  0  0  0  0  0  0  0
    1.7087   -1.7580   -0.6297 H   0  0  0  0  0  0  0  0  0  0  0  0
    3.4493   -1.7469   -0.6922 H   0  0  0  0  0  0  0  0  0  0  0  0
    2.5981   -2.5700    0.0000 H   0  0  0  0  0  0  0  0  0  0  0  0
    4.2976    0.5113   -0.8146 H   0  0  0  0  0  0  0  0  0  0  0  0
    8.7384    0.8165    1.0122 H   0  0  0  0  0  0  0  0  0  0  0  0
    9.6490   -1.9885   -1.2215 H   0  0  0  0  0  0  0  0  0  0  0  0
   10.2622   -2.8501    0.1918 H   0  0  0  0  0  0  0  0  0  0  0  0
    7.9752   -3.1557    1.0913 H   0  0  0  0  0  0  0  0  0  0  0  0
    8.0346   -3.7385   -0.5930 H   0  0  0  0  0  0  0  0  0  0  0  0
    0.2562   -1.3289    1.5619 H   0  0  0  0  0  0  0  0  0  0  0  0
   -1.0229   -0.9151   -0.5786 H   0  0  0  0  0  0  0  0  0  0  0  0
  1  2  1  0  0  0  0
  1 22  1  0  0  0  0
  1 23  1  0  0  0  0
  1 24  1  0  0  0  0
  2  3  1  0  0  0  0
  3 21  2  0  0  0  0
  3  4  1  0  0  0  0
  4  5  2  0  0  0  0
  4 25  1  0  0  0  0
  5  6  1  0  0  0  0
  5 26  1  0  0  0  0
  6  7  1  0  0  0  0
  6 20  2  0  0  0  0
  7  8  1  0  0  0  0
  7  9  1  0  0  0  0
  7 27  1  6  0  0  0
  8 28  1  0  0  0  0
  8 29  1  0  0  0  0
  8 30  1  0  0  0  0
  9 10  1  0  0  0  0
  9 31  1  0  0  0  0
 10 11  2  0  0  0  0
 10 12  1  0  0  0  0
 12 13  1  0  0  0  0
 13 18  1  0  0  0  0
 13 14  2  0  0  0  0
 14 15  1  0  0  0  0
 14 32  1  0  0  0  0
 15 16  1  0  0  0  0
 16 17  1  0  0  0  0
 16 33  1  0  0  0  0
 16 34  1  0  0  0  0
 17 18  1  0  0  0  0
 17 35  1  0  0  0  0
 17 36  1  0  0  0  0
 18 19  2  0  0  0  0
 20 21  1  0  0  0  0
 20 37  1  0  0  0  0
 21 38  1  0  0  0  0
M  END
$$$$
