
 OpenBabel03202621342D

 22 24  0  0  0  0  0  0  0  0999 V2000
    0.0933    1.7796    0.0000 C   0  0  0  0  0  0  0  0  0  0  0  0
    0.5000    0.8660    0.0000 C   0  0  0  0  0  0  0  0  0  0  0  0
    1.8309    0.5239   -0.0000 C   0  0  0  0  0  0  0  0  0  0  0  0
    1.8853   -0.8340   -0.0000 N   0  0  0  0  0  0  0  0  0  0  0  0
    3.0877   -1.5548   -0.0000 C   0  0  0  0  0  0  0  0  0  0  0  0
    4.2021   -0.7481   -0.0000 N   0  0  0  0  0  0  0  0  0  0  0  0
    5.3298   -1.4798   -0.0000 C   0  0  0  0  0  0  0  0  0  0  0  0
    6.5695   -1.0006    0.0000 N   0  0  0  0  0  0  0  0  0  0  0  0
    7.3720   -2.1365    0.0000 O   0  0  0  0  0  0  0  0  0  0  0  0
    6.6179   -3.3167    0.0000 N   0  0  0  0  0  0  0  0  0  0  0  0
    5.3475   -2.9118    0.0000 C   0  0  0  0  0  0  0  0  0  0  0  0
    4.2246   -3.6920    0.0000 N   0  0  0  0  0  0  0  0  0  0  0  0
    3.0785   -2.9689    0.0000 C   0  0  0  0  0  0  0  0  0  0  0  0
    1.9154   -3.7133   -0.0000 N   0  0  0  0  0  0  0  0  0  0  0  0
    0.6398   -1.3439    0.0000 N   0  0  0  0  0  0  0  0  0  0  0  0
   -0.2042   -0.3268    0.0000 N   0  0  0  0  0  0  0  0  0  0  0  0
    0.8984    2.5327    0.0000 H   0  0  0  0  0  0  0  0  0  0  0  0
   -1.0017    1.6639    0.0000 H   0  0  0  0  0  0  0  0  0  0  0  0
   -0.3419    2.7571    0.0000 H   0  0  0  0  0  0  0  0  0  0  0  0
    2.7233    1.1418   -0.0000 H   0  0  0  0  0  0  0  0  0  0  0  0
    1.0056   -3.2669    0.0000 H   0  0  0  0  0  0  0  0  0  0  0  0
    1.9774   -4.7208    0.0000 H   0  0  0  0  0  0  0  0  0  0  0  0
  1  2  1  0  0  0  0
  1 17  1  0  0  0  0
  1 18  1  0  0  0  0
  1 19  1  0  0  0  0
  2 16  1  0  0  0  0
  2  3  2  0  0  0  0
  3  4  1  0  0  0  0
  3 20  1  0  0  0  0
  4  5  1  0  0  0  0
  4 15  1  0  0  0  0
  5 13  1  0  0  0  0
  5  6  2  0  0  0  0
  6  7  1  0  0  0  0
  7 11  1  0  0  0  0
  7  8  2  0  0  0  0
  8  9  1  0  0  0  0
  9 10  1  0  0  0  0
 10 11  2  0  0  0  0
 11 12  1  0  0  0  0
 12 13  2  0  0  0  0
 13 14  1  0  0  0  0
 14 21  1  0  0  0  0
 14 22  1  0  0  0  0
 15 16  2  0  0  0  0
M  END
$$$$
