
 OpenBabel03202621402D

 58 60  0  0  1  0  0  0  0  0999 V2000
    0.5000   -6.0622    0.0000 C   0  0  0  0  0  0  0  0  0  0  0  0
    1.5000   -6.0622    0.0000 C   0  0  0  0  0  0  0  0  0  0  0  0
    2.2559   -6.9644   -0.3986 O   0  0  0  0  0  0  0  0  0  0  0  0
    1.4597   -5.2313    1.6916 C   0  0  0  0  0  0  0  0  0  0  0  0
    0.6749   -3.7885    1.6245 C   0  0  0  0  0  0  0  0  0  0  0  0
    0.2340   -3.3113    2.6757 O   0  0  0  0  0  0  0  0  0  0  0  0
    0.5123   -3.0228    0.2728 C   0  0  2  0  0  0  0  0  0  0  0  0
   -0.3836   -3.7096   -0.6128 O   0  0  0  0  0  0  0  0  0  0  0  0
    0.1153   -1.5494    0.2088 C   0  0  0  0  0  0  0  0  0  0  0  0
   -0.6047   -1.2526   -0.7543 O   0  0  0  0  0  0  0  0  0  0  0  0
    0.7875   -0.5142    1.1121 C   0  0  2  0  0  0  0  0  0  0  0  0
    2.2901   -0.5182    0.8009 C   0  0  0  0  0  0  0  0  0  0  0  0
    3.1884    0.6999    0.7521 C   0  0  0  0  0  0  0  0  0  0  0  0
    4.6303    0.4088    0.7460 N   0  0  0  0  0  0  0  0  0  0  0  0
    5.4383    1.4965    0.8522 N   0  0  0  0  0  0  0  0  0  0  0  0
    6.6957    1.0920    0.8431 N   0  0  0  0  0  0  0  0  0  0  0  0
    6.7126   -0.2706    0.7156 C   0  0  0  0  0  0  0  0  0  0  0  0
    7.9553   -1.0140    0.7969 C   0  0  0  0  0  0  0  0  0  0  0  0
    8.0888   -2.2000    1.0741 O   0  0  0  0  0  0  0  0  0  0  0  0
    9.0731   -0.2832    0.5442 O   0  0  0  0  0  0  0  0  0  0  0  0
    5.3992   -0.7348    0.5737 C   0  0  0  0  0  0  0  0  0  0  0  0
    5.0163   -2.1458    0.2522 C   0  0  0  0  0  0  0  0  0  0  0  0
    5.8038   -3.0275   -0.5173 C   0  0  0  0  0  0  0  0  0  0  0  0
    5.0407   -4.1565   -0.6495 C   0  0  0  0  0  0  0  0  0  0  0  0
    3.8277   -3.9351    0.0000 N   0  0  0  0  0  0  0  0  0  0  0  0
    3.0187   -4.5229    0.0000 C   0  0  0  0  0  0  0  0  0  0  0  0
    3.8654   -2.7352    0.6063 N   0  0  0  0  0  0  0  0  0  0  0  0
    0.1176    0.8495    1.2097 C   0  0  0  0  0  0  0  0  0  0  0  0
    0.6947    1.7992    1.7402 O   0  0  0  0  0  0  0  0  0  0  0  0
   -1.3499    0.8926    0.9409 C   0  0  0  0  0  0  0  0  0  0  0  0
   -2.1340    0.0528    1.7658 C   0  0  0  0  0  0  0  0  0  0  0  0
   -3.4702   -0.1669    1.4704 C   0  0  0  0  0  0  0  0  0  0  0  0
   -4.0254    0.4808    0.3782 C   0  0  0  0  0  0  0  0  0  0  0  0
   -3.2418    1.3444   -0.4060 C   0  0  0  0  0  0  0  0  0  0  0  0
   -1.8690    1.5859   -0.1804 C   0  0  0  0  0  0  0  0  0  0  0  0
   -1.1874    2.3255   -0.9684 O   0  5  0  0  0  0  0  0  0  0  0  0
    0.3696   -6.1391   -1.1074 H   0  0  0  0  0  0  0  0  0  0  0  0
    0.3417   -7.0668    0.4721 H   0  0  0  0  0  0  0  0  0  0  0  0
   -0.5700   -6.0622    0.0000 H   0  0  0  0  0  0  0  0  0  0  0  0
    0.8693   -5.8863    2.3494 H   0  0  0  0  0  0  0  0  0  0  0  0
    2.4462   -5.1077    2.1475 H   0  0  0  0  0  0  0  0  0  0  0  0
    1.4505   -2.9931   -0.2563 H   0  0  0  0  0  0  0  0  0  0  0  0
   -0.8441   -2.9990   -1.1251 H   0  0  0  0  0  0  0  0  0  0  0  0
    0.6717   -0.9100    2.1296 H   0  0  0  0  0  0  0  0  0  0  0  0
    2.6950   -1.1383    1.6069 H   0  0  0  0  0  0  0  0  0  0  0  0
    2.4336   -1.0114   -0.1664 H   0  0  0  0  0  0  0  0  0  0  0  0
    3.0390    1.3330    1.6310 H   0  0  0  0  0  0  0  0  0  0  0  0
    2.9937    1.2900   -0.1527 H   0  0  0  0  0  0  0  0  0  0  0  0
    9.7969   -0.9290    0.6653 H   0  0  0  0  0  0  0  0  0  0  0  0
    6.7731   -2.8678   -0.9649 H   0  0  0  0  0  0  0  0  0  0  0  0
    5.2273   -5.0810   -1.1828 H   0  0  0  0  0  0  0  0  0  0  0  0
    2.8074   -4.5800   -1.1026 H   0  0  0  0  0  0  0  0  0  0  0  0
    3.5259   -5.4447    0.3898 H   0  0  0  0  0  0  0  0  0  0  0  0
    2.1531   -5.1518    0.0000 H   0  0  0  0  0  0  0  0  0  0  0  0
   -1.6823   -0.4639    2.6070 H   0  0  0  0  0  0  0  0  0  0  0  0
   -4.0607   -0.8498    2.0699 H   0  0  0  0  0  0  0  0  0  0  0  0
   -5.0640    0.3170    0.1120 H   0  0  0  0  0  0  0  0  0  0  0  0
   -3.7110    1.8310   -1.2616 H   0  0  0  0  0  0  0  0  0  0  0  0
  1  2  1  0  0  0  0
  1 37  1  0  0  0  0
  1 38  1  0  0  0  0
  1 39  1  0  0  0  0
  2  3  2  0  0  0  0
  2  4  1  0  0  0  0
  4  5  1  0  0  0  0
  4 40  1  0  0  0  0
  4 41  1  0  0  0  0
  5  6  2  0  0  0  0
  5  7  1  0  0  0  0
  7  8  1  0  0  0  0
  7  9  1  0  0  0  0
  7 42  1  1  0  0  0
  8 43  1  0  0  0  0
  9 10  2  0  0  0  0
  9 11  1  0  0  0  0
 11 12  1  0  0  0  0
 11 28  1  0  0  0  0
 11 44  1  6  0  0  0
 12 13  1  0  0  0  0
 12 45  1  0  0  0  0
 12 46  1  0  0  0  0
 13 14  1  0  0  0  0
 13 47  1  0  0  0  0
 13 48  1  0  0  0  0
 14 21  1  0  0  0  0
 14 15  1  0  0  0  0
 15 16  2  0  0  0  0
 16 17  1  0  0  0  0
 17 18  1  0  0  0  0
 17 21  2  0  0  0  0
 18 19  2  0  0  0  0
 18 20  1  0  0  0  0
 20 49  1  0  0  0  0
 21 22  1  0  0  0  0
 22 27  2  0  0  0  0
 22 23  1  0  0  0  0
 23 24  2  0  0  0  0
 23 50  1  0  0  0  0
 24 25  1  0  0  0  0
 24 51  1  0  0  0  0
 25 26  1  0  0  0  0
 25 27  1  0  0  0  0
 26 52  1  0  0  0  0
 26 53  1  0  0  0  0
 26 54  1  0  0  0  0
 28 29  2  0  0  0  0
 28 30  1  0  0  0  0
 30 35  2  0  0  0  0
 30 31  1  0  0  0  0
 31 32  2  0  0  0  0
 31 55  1  0  0  0  0
 32 33  1  0  0  0  0
 32 56  1  0  0  0  0
 33 34  2  0  0  0  0
 33 57  1  0  0  0  0
 34 35  1  0  0  0  0
 34 58  1  0  0  0  0
 35 36  1  0  0  0  0
M  CHG  1  36  -1
M  END
$$$$
