
 OpenBabel03202621402D

 32 33  0  0  1  0  0  0  0  0999 V2000
    2.8958   -1.9886    0.0000 C   0  0  0  0  0  0  0  0  0  0  0  0
    3.4836   -1.1796    0.0000 S   0  0  0  0  0  0  0  0  0  0  0  0
    2.5795    0.2464    0.7135 C   0  0  0  0  0  0  0  0  0  0  0  0
    1.3607    0.7921   -0.0574 C   0  0  1  0  0  0  0  0  0  0  0  0
    0.8571    1.8799    0.7262 O   0  0  0  0  0  0  0  0  0  0  0  0
    0.3458   -0.3283   -0.2357 C   0  0  0  0  0  0  0  0  0  0  0  0
   -0.9798   -0.0023   -0.7018 N   0  0  0  0  0  0  0  0  0  0  0  0
   -1.7973   -0.9679   -1.2303 C   0  0  0  0  0  0  0  0  0  0  0  0
   -2.9876   -0.7366   -0.5857 C   0  0  0  0  0  0  0  0  0  0  0  0
   -4.0222   -1.7304   -0.3912 C   0  0  0  0  0  0  0  0  0  0  0  0
   -3.6699   -3.0896   -0.2753 C   0  0  0  0  0  0  0  0  0  0  0  0
   -4.6376   -4.0596   -0.0064 C   0  0  0  0  0  0  0  0  0  0  0  0
   -5.9662   -3.6831    0.1557 C   0  0  0  0  0  0  0  0  0  0  0  0
   -6.3264   -2.3409    0.0439 C   0  0  0  0  0  0  0  0  0  0  0  0
   -5.3571   -1.3733   -0.2227 C   0  0  0  0  0  0  0  0  0  0  0  0
   -5.7472   -0.0929   -0.3157 F   0  0  0  0  0  0  0  0  0  0  0  0
   -2.9412    0.4879    0.0261 N   0  0  0  0  0  0  0  0  0  0  0  0
   -1.7010    0.9489   -0.0821 N   0  0  0  0  0  0  0  0  0  0  0  0
    3.0485   -2.3241    1.0455 H   0  0  0  0  0  0  0  0  0  0  0  0
    3.5059   -2.6430   -0.6510 H   0  0  0  0  0  0  0  0  0  0  0  0
    2.2669   -2.8542    0.0000 H   0  0  0  0  0  0  0  0  0  0  0  0
    3.3134    1.0584    0.7974 H   0  0  0  0  0  0  0  0  0  0  0  0
    2.3032    0.0142    1.7504 H   0  0  0  0  0  0  0  0  0  0  0  0
    1.6632    1.1999   -1.0288 H   0  0  0  0  0  0  0  0  0  0  0  0
   -0.0614    2.0746    0.4439 H   0  0  0  0  0  0  0  0  0  0  0  0
    0.7297   -1.0568   -0.9576 H   0  0  0  0  0  0  0  0  0  0  0  0
    0.1907   -0.8411    0.7226 H   0  0  0  0  0  0  0  0  0  0  0  0
   -1.4083   -1.8200   -1.7663 H   0  0  0  0  0  0  0  0  0  0  0  0
   -2.6324   -3.4093   -0.3614 H   0  0  0  0  0  0  0  0  0  0  0  0
   -4.3431   -5.1027    0.0978 H   0  0  0  0  0  0  0  0  0  0  0  0
   -6.7198   -4.4356    0.3761 H   0  0  0  0  0  0  0  0  0  0  0  0
   -7.3612   -2.0341    0.1748 H   0  0  0  0  0  0  0  0  0  0  0  0
  1  2  1  0  0  0  0
  1 19  1  0  0  0  0
  1 20  1  0  0  0  0
  1 21  1  0  0  0  0
  2  3  1  0  0  0  0
  3  4  1  0  0  0  0
  3 22  1  0  0  0  0
  3 23  1  0  0  0  0
  4  5  1  0  0  0  0
  4  6  1  0  0  0  0
  4 24  1  1  0  0  0
  5 25  1  0  0  0  0
  6  7  1  0  0  0  0
  6 26  1  0  0  0  0
  6 27  1  0  0  0  0
  7 18  1  0  0  0  0
  7  8  1  0  0  0  0
  8  9  2  0  0  0  0
  8 28  1  0  0  0  0
  9 10  1  0  0  0  0
  9 17  1  0  0  0  0
 10 15  2  0  0  0  0
 10 11  1  0  0  0  0
 11 12  2  0  0  0  0
 11 29  1  0  0  0  0
 12 13  1  0  0  0  0
 12 30  1  0  0  0  0
 13 14  2  0  0  0  0
 13 31  1  0  0  0  0
 14 15  1  0  0  0  0
 14 32  1  0  0  0  0
 15 16  1  0  0  0  0
 17 18  2  0  0  0  0
M  END
$$$$
