
 OpenBabel03202621362D

 40 41  0  0  1  0  0  0  0  0999 V2000
    6.1569    2.3574    0.5373 C   0  0  0  0  0  0  0  0  0  0  0  0
    5.1387    1.6580    0.4344 C   0  0  0  0  0  0  0  0  0  0  0  0
    3.9261    0.8045    0.2407 C   0  0  0  0  0  0  0  0  0  0  0  0
    2.5981    1.5000    0.0000 N   0  0  0  0  0  0  0  0  0  0  0  0
    2.5981    2.5000    0.0000 C   0  0  0  0  0  0  0  0  0  0  0  0
    1.8613    1.0954   -1.2357 C   0  0  1  0  0  0  0  0  0  0  0  0
    0.5342    2.0140   -1.2866 C   0  0  0  0  0  0  0  0  0  0  0  0
    1.7218   -0.4436   -1.2610 C   0  0  0  0  0  0  0  0  0  0  0  0
    1.1424   -0.9251    0.0319 C   0  0  0  0  0  0  0  0  0  0  0  0
    1.3660   -2.1838    0.5812 C   0  0  0  0  0  0  0  0  0  0  0  0
    0.4328   -2.5950    1.5226 C   0  0  0  0  0  0  0  0  0  0  0  0
   -0.6517   -1.7218    1.7318 C   0  0  0  0  0  0  0  0  0  0  0  0
   -1.6276   -1.8574    0.7037 N   0  0  0  0  0  0  0  0  0  0  0  0
   -1.6021   -2.7235   -0.3616 C   0  0  0  0  0  0  0  0  0  0  0  0
   -2.8147   -3.2024    0.0000 C   0  0  0  0  0  0  0  0  0  0  0  0
   -3.2215   -4.1160    0.0000 C   0  0  0  0  0  0  0  0  0  0  0  0
   -3.6029   -2.0679    0.2106 N   0  0  0  0  0  0  0  0  0  0  0  0
   -2.7768   -1.1490    0.6387 N   0  0  0  0  0  0  0  0  0  0  0  0
   -0.4319   -0.3865    1.8321 C   0  0  0  0  0  0  0  0  0  0  0  0
    0.2086   -0.0764    0.6694 C   0  0  0  0  0  0  0  0  0  0  0  0
    7.0237    2.9533    0.6164 H   0  0  0  0  0  0  0  0  0  0  0  0
    4.1911    0.1448   -0.5884 H   0  0  0  0  0  0  0  0  0  0  0  0
    3.8138    0.1865    1.1401 H   0  0  0  0  0  0  0  0  0  0  0  0
    3.3944    2.7796   -0.7314 H   0  0  0  0  0  0  0  0  0  0  0  0
    2.8279    2.7161    1.0650 H   0  0  0  0  0  0  0  0  0  0  0  0
    2.5981    3.5700    0.0000 H   0  0  0  0  0  0  0  0  0  0  0  0
    2.4112    1.3717   -2.1492 H   0  0  0  0  0  0  0  0  0  0  0  0
    0.7606    3.0259   -1.6443 H   0  0  0  0  0  0  0  0  0  0  0  0
   -0.2773    1.5986   -1.8826 H   0  0  0  0  0  0  0  0  0  0  0  0
    0.1442    2.2454   -0.2746 H   0  0  0  0  0  0  0  0  0  0  0  0
    1.1508   -0.7796   -2.1305 H   0  0  0  0  0  0  0  0  0  0  0  0
    2.7124   -0.9023   -1.3711 H   0  0  0  0  0  0  0  0  0  0  0  0
    2.0650   -2.8944    0.1547 H   0  0  0  0  0  0  0  0  0  0  0  0
    0.3150   -3.6534    1.7427 H   0  0  0  0  0  0  0  0  0  0  0  0
   -0.7289   -3.1881   -0.7937 H   0  0  0  0  0  0  0  0  0  0  0  0
   -4.1456   -3.9723    0.6170 H   0  0  0  0  0  0  0  0  0  0  0  0
   -2.5037   -4.6394    0.6812 H   0  0  0  0  0  0  0  0  0  0  0  0
   -3.6567   -5.0935    0.0000 H   0  0  0  0  0  0  0  0  0  0  0  0
   -1.2604    0.2864    2.0896 H   0  0  0  0  0  0  0  0  0  0  0  0
   -0.3989    0.5519    0.0259 H   0  0  0  0  0  0  0  0  0  0  0  0
  1  2  3  0  0  0  0
  1 21  1  0  0  0  0
  2  3  1  0  0  0  0
  3  4  1  0  0  0  0
  3 22  1  0  0  0  0
  3 23  1  0  0  0  0
  4  5  1  0  0  0  0
  4  6  1  0  0  0  0
  5 24  1  0  0  0  0
  5 25  1  0  0  0  0
  5 26  1  0  0  0  0
  6  7  1  0  0  0  0
  6  8  1  0  0  0  0
  6 27  1  1  0  0  0
  7 28  1  0  0  0  0
  7 29  1  0  0  0  0
  7 30  1  0  0  0  0
  8  9  1  0  0  0  0
  8 31  1  0  0  0  0
  8 32  1  0  0  0  0
  9 20  2  0  0  0  0
  9 10  1  0  0  0  0
 10 11  2  0  0  0  0
 10 33  1  0  0  0  0
 11 12  1  0  0  0  0
 11 34  1  0  0  0  0
 12 13  1  0  0  0  0
 12 19  2  0  0  0  0
 13 18  1  0  0  0  0
 13 14  1  0  0  0  0
 14 15  2  0  0  0  0
 14 35  1  0  0  0  0
 15 16  1  0  0  0  0
 15 17  1  0  0  0  0
 16 36  1  0  0  0  0
 16 37  1  0  0  0  0
 16 38  1  0  0  0  0
 17 18  2  0  0  0  0
 19 20  1  0  0  0  0
 19 39  1  0  0  0  0
 20 40  1  0  0  0  0
M  END
$$$$
