
 OpenBabel03202621362D

 24 24  0  0  0  0  0  0  0  0999 V2000
   -1.7321   -2.0000    0.0000 C   0  0  0  0  0  0  0  0  0  0  0  0
   -1.7321   -3.0000    0.0000 O   0  0  0  0  0  0  0  0  0  0  0  0
   -0.4995   -3.5721    0.2721 C   0  0  0  0  0  0  0  0  0  0  0  0
    0.7386   -3.0974    0.5635 C   0  0  0  0  0  0  0  0  0  0  0  0
    1.6914   -4.0476    0.7491 F   0  0  0  0  0  0  0  0  0  0  0  0
    1.3153   -1.7181    0.7398 C   0  0  0  0  0  0  0  0  0  0  0  0
    2.4914   -1.4998    0.9870 O   0  0  0  0  0  0  0  0  0  0  0  0
    0.3355   -0.7906    0.6862 O   0  0  0  0  0  0  0  0  0  0  0  0
    0.5036    0.6076    0.6129 C   0  0  0  0  0  0  0  0  0  0  0  0
   -0.4199    1.4097    1.1496 C   0  0  0  0  0  0  0  0  0  0  0  0
   -0.4850    2.7695    1.1051 O   0  0  0  0  0  0  0  0  0  0  0  0
    0.4663    3.4532    0.2856 C   0  0  0  0  0  0  0  0  0  0  0  0
    1.7709    2.7215    0.0111 C   0  0  0  0  0  0  0  0  0  0  0  0
    1.5429    1.2643   -0.2135 C   0  0  0  0  0  0  0  0  0  0  0  0
    2.1777    0.6030   -1.0436 O   0  0  0  0  0  0  0  0  0  0  0  0
   -1.8786   -1.8157   -1.0863 H   0  0  0  0  0  0  0  0  0  0  0  0
   -2.7073   -1.8228    0.4974 H   0  0  0  0  0  0  0  0  0  0  0  0
   -1.7321   -0.9300    0.0000 H   0  0  0  0  0  0  0  0  0  0  0  0
   -0.6364   -4.6510    0.2151 H   0  0  0  0  0  0  0  0  0  0  0  0
   -1.2710    1.0228    1.6959 H   0  0  0  0  0  0  0  0  0  0  0  0
    0.6969    4.3904    0.8041 H   0  0  0  0  0  0  0  0  0  0  0  0
   -0.0264    3.7300   -0.6525 H   0  0  0  0  0  0  0  0  0  0  0  0
    2.2435    3.1546   -0.8759 H   0  0  0  0  0  0  0  0  0  0  0  0
    2.4621    2.8236    0.8554 H   0  0  0  0  0  0  0  0  0  0  0  0
  1  2  1  0  0  0  0
  1 16  1  0  0  0  0
  1 17  1  0  0  0  0
  1 18  1  0  0  0  0
  2  3  1  0  0  0  0
  3  4  2  3  0  0  0
  3 19  1  0  0  0  0
  4  5  1  0  0  0  0
  4  6  1  0  0  0  0
  6  7  2  0  0  0  0
  6  8  1  0  0  0  0
  8  9  1  0  0  0  0
  9 14  1  0  0  0  0
  9 10  2  0  0  0  0
 10 11  1  0  0  0  0
 10 20  1  0  0  0  0
 11 12  1  0  0  0  0
 12 13  1  0  0  0  0
 12 21  1  0  0  0  0
 12 22  1  0  0  0  0
 13 14  1  0  0  0  0
 13 23  1  0  0  0  0
 13 24  1  0  0  0  0
 14 15  2  0  0  0  0
M  END
$$$$
