
 OpenBabel03202621362D

 58 58  0  0  1  0  0  0  0  0999 V2000
    5.1962   -6.0000    0.0000 C   0  0  0  0  0  0  0  0  0  0  0  0
    5.1962   -5.0000    0.0000 O   0  0  0  0  0  0  0  0  0  0  0  0
    4.3301   -4.5000    0.0000 N   0  0  0  0  0  0  0  0  0  0  0  0
    4.3301   -3.5000    0.0000 C   0  0  0  0  0  0  0  0  0  0  0  0
    3.5925   -4.7221    1.2409 C   0  0  0  0  0  0  0  0  0  0  0  0
    4.0333   -4.9640    2.3601 O   0  0  0  0  0  0  0  0  0  0  0  0
    2.2257   -4.9991    0.8002 C   0  0  0  0  0  0  0  0  0  0  0  0
    1.7839   -4.0752   -0.2426 N   0  0  0  0  0  0  0  0  0  0  0  0
    1.0073   -2.9967    0.2929 C   0  0  3  0  0  0  0  0  0  0  0  0
    1.5155   -1.5277   -0.1819 C   0  0  2  0  0  0  0  0  0  0  0  0
    2.7787   -0.7590    0.4747 C   0  0  0  0  0  0  0  0  0  0  0  0
    3.6134   -1.0668    1.7299 C   0  0  0  0  0  0  0  0  0  0  0  0
    3.0787   -2.1168    2.4854 O   0  0  0  0  0  0  0  0  0  0  0  0
    0.3565   -0.5699    0.0048 C   0  0  0  0  0  0  0  0  0  0  0  0
   -0.4937   -0.8333    0.8775 O   0  0  0  0  0  0  0  0  0  0  0  0
    0.2710    0.7861   -0.6457 C   0  0  0  0  0  0  0  0  0  0  0  0
    1.3945    1.5503   -0.9392 C   0  0  0  0  0  0  0  0  0  0  0  0
    1.3947    2.9164   -0.6667 C   0  0  0  0  0  0  0  0  0  0  0  0
    0.2230    3.5322   -0.2288 C   0  0  0  0  0  0  0  0  0  0  0  0
   -0.9680    2.8127   -0.1972 C   0  0  0  0  0  0  0  0  0  0  0  0
   -0.9401    1.4481   -0.4556 C   0  0  0  0  0  0  0  0  0  0  0  0
   -2.1134    0.7399   -0.4941 O   0  0  0  0  0  0  0  0  0  0  0  0
   -0.4759   -3.5569    0.0098 C   0  0  1  0  0  0  0  0  0  0  0  0
   -1.0960   -2.7480   -0.9889 O   0  0  0  0  0  0  0  0  0  0  0  0
   -0.9165   -5.1406   -0.3165 C   0  0  0  0  0  0  0  0  0  0  0  0
   -2.1101   -5.4274   -0.4735 O   0  0  0  0  0  0  0  0  0  0  0  0
    0.1021   -6.2482   -0.3619 C   0  0  0  0  0  0  0  0  0  0  0  0
    0.0015   -7.7199   -0.6177 C   0  0  0  0  0  0  0  0  0  0  0  0
   -1.1910   -8.5129   -0.2162 C   0  0  0  0  0  0  0  0  0  0  0  0
    1.0262   -8.3259   -0.9839 O   0  0  0  0  0  0  0  0  0  0  0  0
    5.0336   -6.2293   -1.0890 H   0  0  0  0  0  0  0  0  0  0  0  0
    6.2787   -6.1791    0.1813 H   0  0  0  0  0  0  0  0  0  0  0  0
    5.1962   -7.0700    0.0000 H   0  0  0  0  0  0  0  0  0  0  0  0
    5.2727   -3.2110    0.5757 H   0  0  0  0  0  0  0  0  0  0  0  0
    4.4946   -3.3252   -1.0962 H   0  0  0  0  0  0  0  0  0  0  0  0
    4.3301   -2.4300    0.0000 H   0  0  0  0  0  0  0  0  0  0  0  0
    2.3426   -6.0038    0.3706 H   0  0  0  0  0  0  0  0  0  0  0  0
    1.5694   -5.0314    1.6747 H   0  0  0  0  0  0  0  0  0  0  0  0
    2.3976   -3.8908   -1.0267 H   0  0  0  0  0  0  0  0  0  0  0  0
    1.1153   -2.9647    1.3846 H   0  0  0  0  0  0  0  0  0  0  0  0
    1.7015   -1.5785   -1.2638 H   0  0  0  0  0  0  0  0  0  0  0  0
    2.4481    0.2463    0.7496 H   0  0  0  0  0  0  0  0  0  0  0  0
    3.4926   -0.5559   -0.3427 H   0  0  0  0  0  0  0  0  0  0  0  0
    3.7121   -0.1681    2.3544 H   0  0  0  0  0  0  0  0  0  0  0  0
    4.6628   -1.2777    1.4775 H   0  0  0  0  0  0  0  0  0  0  0  0
    3.8198   -2.5518    2.9526 H   0  0  0  0  0  0  0  0  0  0  0  0
    2.3420    1.0864   -1.2304 H   0  0  0  0  0  0  0  0  0  0  0  0
    2.3164    3.4912   -0.7291 H   0  0  0  0  0  0  0  0  0  0  0  0
    0.2347    4.5761    0.0758 H   0  0  0  0  0  0  0  0  0  0  0  0
   -1.8967    3.3070    0.0702 H   0  0  0  0  0  0  0  0  0  0  0  0
   -2.7286    1.1223    0.1208 H   0  0  0  0  0  0  0  0  0  0  0  0
   -0.9975   -3.3914    0.9650 H   0  0  0  0  0  0  0  0  0  0  0  0
   -1.6792   -2.1407   -0.4883 H   0  0  0  0  0  0  0  0  0  0  0  0
    0.8215   -5.9515   -1.1299 H   0  0  0  0  0  0  0  0  0  0  0  0
    0.4266   -6.3068    0.6742 H   0  0  0  0  0  0  0  0  0  0  0  0
   -1.9595   -8.4124   -0.9805 H   0  0  0  0  0  0  0  0  0  0  0  0
   -0.8990   -9.5709   -0.1461 H   0  0  0  0  0  0  0  0  0  0  0  0
   -1.5414   -8.2033    0.7692 H   0  0  0  0  0  0  0  0  0  0  0  0
  1  2  1  0  0  0  0
  1 31  1  0  0  0  0
  1 32  1  0  0  0  0
  1 33  1  0  0  0  0
  2  3  1  0  0  0  0
  3  4  1  0  0  0  0
  3  5  1  0  0  0  0
  4 34  1  0  0  0  0
  4 35  1  0  0  0  0
  4 36  1  0  0  0  0
  5  6  2  0  0  0  0
  5  7  1  0  0  0  0
  7  8  1  0  0  0  0
  7 37  1  0  0  0  0
  7 38  1  0  0  0  0
  8  9  1  0  0  0  0
  8 39  1  0  0  0  0
  9 10  1  0  0  0  0
  9 23  1  0  0  0  0
  9 40  1  0  0  0  0
 10 11  1  0  0  0  0
 10 14  1  0  0  0  0
 10 41  1  6  0  0  0
 11 12  1  0  0  0  0
 11 42  1  0  0  0  0
 11 43  1  0  0  0  0
 12 13  1  0  0  0  0
 12 44  1  0  0  0  0
 12 45  1  0  0  0  0
 13 46  1  0  0  0  0
 14 15  2  0  0  0  0
 14 16  1  0  0  0  0
 16 21  2  0  0  0  0
 16 17  1  0  0  0  0
 17 18  2  0  0  0  0
 17 47  1  0  0  0  0
 18 19  1  0  0  0  0
 18 48  1  0  0  0  0
 19 20  2  0  0  0  0
 19 49  1  0  0  0  0
 20 21  1  0  0  0  0
 20 50  1  0  0  0  0
 21 22  1  0  0  0  0
 22 51  1  0  0  0  0
 23 24  1  0  0  0  0
 23 25  1  0  0  0  0
 23 52  1  1  0  0  0
 24 53  1  0  0  0  0
 25 26  2  0  0  0  0
 25 27  1  0  0  0  0
 27 28  1  0  0  0  0
 27 54  1  0  0  0  0
 27 55  1  0  0  0  0
 28 29  1  0  0  0  0
 28 30  2  0  0  0  0
 29 56  1  0  0  0  0
 29 57  1  0  0  0  0
 29 58  1  0  0  0  0
M  END
$$$$
