
 OpenBabel03202621322D

 20 20  0  0  0  0  0  0  0  0999 V2000
    2.2953   -1.9260    0.0000 C   0  0  0  0  0  0  0  0  0  0  0  0
    2.5032   -0.9479    0.0000 S   0  0  0  0  0  0  0  0  0  0  0  0
    2.3358    0.5486    0.0000 C   0  0  0  0  0  0  0  0  0  0  0  0
    2.8913    1.6188   -0.0000 O   0  0  0  0  0  0  0  0  0  0  0  0
    1.1507   -0.2526   -0.0000 C   0  0  0  0  0  0  0  0  0  0  0  0
    0.5000   -1.5388    0.0000 C   0  0  0  0  0  0  0  0  0  0  0  0
    1.0878   -2.3479    0.0000 C   0  0  0  0  0  0  0  0  0  0  0  0
   -0.8989   -1.6946   -0.0000 N   0  0  0  0  0  0  0  0  0  0  0  0
   -1.1979   -0.4556   -0.0000 O   0  0  0  0  0  0  0  0  0  0  0  0
    0.0000    0.0000    0.0000 C   0  0  0  0  0  0  0  0  0  0  0  0
    0.0000    1.0000    0.0000 C   0  0  0  0  0  0  0  0  0  0  0  0
    3.4261   -1.7488   -0.0000 H   0  0  0  0  0  0  0  0  0  0  0  0
    3.2219   -2.7296   -0.0000 H   0  0  0  0  0  0  0  0  0  0  0  0
    2.0728   -2.9726    0.0000 H   0  0  0  0  0  0  0  0  0  0  0  0
    0.6825   -3.5605   -0.0000 H   0  0  0  0  0  0  0  0  0  0  0  0
    0.1235   -2.9927    0.0000 H   0  0  0  0  0  0  0  0  0  0  0  0
    1.7167   -3.2136    0.0000 H   0  0  0  0  0  0  0  0  0  0  0  0
    0.8658    1.6735   -0.0000 H   0  0  0  0  0  0  0  0  0  0  0  0
   -1.0525    1.3963    0.0000 H   0  0  0  0  0  0  0  0  0  0  0  0
    0.0000    2.0700    0.0000 H   0  0  0  0  0  0  0  0  0  0  0  0
  1  2  1  0  0  0  0
  1 12  1  0  0  0  0
  1 13  1  0  0  0  0
  1 14  1  0  0  0  0
  2  3  1  0  0  0  0
  3  4  2  0  0  0  0
  3  5  1  0  0  0  0
  5 10  2  0  0  0  0
  5  6  1  0  0  0  0
  6  7  1  0  0  0  0
  6  8  2  0  0  0  0
  7 15  1  0  0  0  0
  7 16  1  0  0  0  0
  7 17  1  0  0  0  0
  8  9  1  0  0  0  0
  9 10  1  0  0  0  0
 10 11  1  0  0  0  0
 11 18  1  0  0  0  0
 11 19  1  0  0  0  0
 11 20  1  0  0  0  0
M  END
$$$$
