
 OpenBabel03202621392D

 26 26  0  0  0  0  0  0  0  0999 V2000
    0.8090    1.5878    0.0000 C   0  0  0  0  0  0  0  0  0  0  0  0
    0.8090    0.5878    0.0000 C   0  0  0  0  0  0  0  0  0  0  0  0
    0.5728   -0.1345   -1.2271 C   0  0  0  0  0  0  0  0  0  0  0  0
    0.4864   -1.4391   -0.8147 N   0  0  0  0  0  0  0  0  0  0  0  0
    1.7424   -2.2242   -0.9485 C   0  0  0  0  0  0  0  0  0  0  0  0
    2.8913   -1.6555    0.0000 C   0  0  0  0  0  0  0  0  0  0  0  0
    3.7003   -1.0678    0.0000 C   0  0  0  0  0  0  0  0  0  0  0  0
    2.7868   -0.6610    0.0000 C   0  0  0  0  0  0  0  0  0  0  0  0
    3.2792   -3.0257    0.6097 C   0  0  0  0  0  0  0  0  0  0  0  0
    3.0502   -3.4525    1.7211 O   0  0  0  0  0  0  0  0  0  0  0  0
    4.0058   -3.7651   -0.2868 O   0  0  0  0  0  0  0  0  0  0  0  0
   -0.1368   -1.4162    0.3982 N   0  0  0  0  0  0  0  0  0  0  0  0
    0.0811   -0.1968    0.9218 N   0  0  0  0  0  0  0  0  0  0  0  0
    1.5270    1.8333   -0.8217 H   0  0  0  0  0  0  0  0  0  0  0  0
   -0.2459    1.8092   -0.3048 H   0  0  0  0  0  0  0  0  0  0  0  0
    0.8090    2.6578    0.0000 H   0  0  0  0  0  0  0  0  0  0  0  0
    0.7395    0.1343   -2.2631 H   0  0  0  0  0  0  0  0  0  0  0  0
    1.4153   -3.2431   -0.6879 H   0  0  0  0  0  0  0  0  0  0  0  0
    2.0187   -2.2303   -2.0097 H   0  0  0  0  0  0  0  0  0  0  0  0
    4.3827   -1.4147    0.9105 H   0  0  0  0  0  0  0  0  0  0  0  0
    4.2902   -1.4926   -0.9289 H   0  0  0  0  0  0  0  0  0  0  0  0
    4.5660   -0.4389    0.0000 H   0  0  0  0  0  0  0  0  0  0  0  0
    3.0522   -0.0778    1.2185 H   0  0  0  0  0  0  0  0  0  0  0  0
    1.9626   -0.8558    0.7935 H   0  0  0  0  0  0  0  0  0  0  0  0
    2.6750    0.4031    0.0000 H   0  0  0  0  0  0  0  0  0  0  0  0
    4.3109   -4.5590    0.1927 H   0  0  0  0  0  0  0  0  0  0  0  0
  1  2  1  0  0  0  0
  1 14  1  0  0  0  0
  1 15  1  0  0  0  0
  1 16  1  0  0  0  0
  2 13  1  0  0  0  0
  2  3  2  0  0  0  0
  3  4  1  0  0  0  0
  3 17  1  0  0  0  0
  4  5  1  0  0  0  0
  4 12  1  0  0  0  0
  5  6  1  0  0  0  0
  5 18  1  0  0  0  0
  5 19  1  0  0  0  0
  6  7  1  0  0  0  0
  6  8  1  0  0  0  0
  6  9  1  0  0  0  0
  7 20  1  0  0  0  0
  7 21  1  0  0  0  0
  7 22  1  0  0  0  0
  8 23  1  0  0  0  0
  8 24  1  0  0  0  0
  8 25  1  0  0  0  0
  9 10  2  0  0  0  0
  9 11  1  0  0  0  0
 11 26  1  0  0  0  0
 12 13  2  0  0  0  0
M  END
$$$$
