
 OpenBabel03202621342D

 31 31  0  0  1  0  0  0  0  0999 V2000
    2.5981   -0.5000    0.0000 C   0  0  0  0  0  0  0  0  0  0  0  0
    1.7321    0.0000    0.0000 C   0  0  0  0  0  0  0  0  0  0  0  0
    0.5782   -1.0075    0.2378 C   0  0  0  0  0  0  0  0  0  0  0  0
    0.6076   -2.3303   -0.2561 C   0  0  0  0  0  0  0  0  0  0  0  0
   -0.4283   -3.2206    0.0256 C   0  0  0  0  0  0  0  0  0  0  0  0
   -1.5008   -2.8121    0.8157 C   0  0  0  0  0  0  0  0  0  0  0  0
   -1.5577   -1.5004    1.2913 C   0  0  0  0  0  0  0  0  0  0  0  0
   -0.5491   -0.5968    0.9530 C   0  0  0  0  0  0  0  0  0  0  0  0
   -0.7381    0.7392    1.2338 O   0  0  0  0  0  0  0  0  0  0  0  0
   -0.8660    1.5000    0.0000 C   0  0  2  0  0  0  0  0  0  0  0  0
   -0.8660    2.5000    0.0000 C   0  0  0  0  0  0  0  0  0  0  0  0
   -2.2693    1.0653   -0.6867 C   0  0  0  0  0  0  0  0  0  0  0  0
   -3.8287    1.5589    0.1642 S   0  0  0  0  0  0  0  0  0  0  0  0
   -4.0600    3.1654   -0.5124 C   0  0  0  0  0  0  0  0  0  0  0  0
   -3.3300    3.6462   -1.3719 O   0  0  0  0  0  0  0  0  0  0  0  0
    2.7381   -0.6604    1.1031 H   0  0  0  0  0  0  0  0  0  0  0  0
    3.2891    0.3326   -0.2902 H   0  0  0  0  0  0  0  0  0  0  0  0
    3.5247   -1.0350    0.0000 H   0  0  0  0  0  0  0  0  0  0  0  0
    1.4987    0.4252   -0.9879 H   0  0  0  0  0  0  0  0  0  0  0  0
    1.6054    0.8367    0.7080 H   0  0  0  0  0  0  0  0  0  0  0  0
    1.4444   -2.6779   -0.8591 H   0  0  0  0  0  0  0  0  0  0  0  0
   -0.3928   -4.2346   -0.3660 H   0  0  0  0  0  0  0  0  0  0  0  0
   -2.3075   -3.5061    1.0343 H   0  0  0  0  0  0  0  0  0  0  0  0
   -2.4216   -1.1653    1.8576 H   0  0  0  0  0  0  0  0  0  0  0  0
   -0.2236    1.0859   -0.7757 H   0  0  0  0  0  0  0  0  0  0  0  0
    0.2242    2.6825    0.1725 H   0  0  0  0  0  0  0  0  0  0  0  0
   -1.3577    2.7200    0.9813 H   0  0  0  0  0  0  0  0  0  0  0  0
   -0.8660    3.5700    0.0000 H   0  0  0  0  0  0  0  0  0  0  0  0
   -2.3045    1.4377   -1.7205 H   0  0  0  0  0  0  0  0  0  0  0  0
   -2.3295   -0.0213   -0.7868 H   0  0  0  0  0  0  0  0  0  0  0  0
   -4.9210    3.7196   -0.1120 H   0  0  0  0  0  0  0  0  0  0  0  0
  1  2  1  0  0  0  0
  1 16  1  0  0  0  0
  1 17  1  0  0  0  0
  1 18  1  0  0  0  0
  2  3  1  0  0  0  0
  2 19  1  0  0  0  0
  2 20  1  0  0  0  0
  3  8  2  0  0  0  0
  3  4  1  0  0  0  0
  4  5  2  0  0  0  0
  4 21  1  0  0  0  0
  5  6  1  0  0  0  0
  5 22  1  0  0  0  0
  6  7  2  0  0  0  0
  6 23  1  0  0  0  0
  7  8  1  0  0  0  0
  7 24  1  0  0  0  0
  8  9  1  0  0  0  0
  9 10  1  0  0  0  0
 10 11  1  0  0  0  0
 10 12  1  0  0  0  0
 10 25  1  6  0  0  0
 11 26  1  0  0  0  0
 11 27  1  0  0  0  0
 11 28  1  0  0  0  0
 12 13  1  0  0  0  0
 12 29  1  0  0  0  0
 12 30  1  0  0  0  0
 13 14  1  0  0  0  0
 14 15  2  0  0  0  0
 14 31  1  0  0  0  0
M  END
$$$$
