
 OpenBabel03202621382D

 24 25  0  0  0  0  0  0  0  0999 V2000
    1.4945   -0.9706    0.0000 C   0  0  0  0  0  0  0  0  0  0  0  0
    0.5000   -0.8660    0.0000 C   0  0  0  0  0  0  0  0  0  0  0  0
   -0.4159   -1.9028   -0.1513 C   0  0  0  0  0  0  0  0  0  0  0  0
   -1.6739   -1.3727   -0.0414 N   0  0  0  0  0  0  0  0  0  0  0  0
   -2.9152   -2.0572   -0.0211 C   0  0  0  0  0  0  0  0  0  0  0  0
   -2.9531   -3.4607    0.0363 C   0  0  0  0  0  0  0  0  0  0  0  0
   -4.1738   -4.1322    0.0671 C   0  0  0  0  0  0  0  0  0  0  0  0
   -5.3663   -3.4164    0.0277 C   0  0  0  0  0  0  0  0  0  0  0  0
   -5.3495   -2.0103   -0.0431 C   0  0  0  0  0  0  0  0  0  0  0  0
   -6.6510   -1.2465   -0.0834 C   0  0  0  0  0  0  0  0  0  0  0  0
   -7.1614   -1.0211    1.1605 F   0  0  0  0  0  0  0  0  0  0  0  0
   -7.6290   -1.9003   -0.7751 F   0  0  0  0  0  0  0  0  0  0  0  0
   -6.5407   -0.0208   -0.6709 F   0  0  0  0  0  0  0  0  0  0  0  0
   -4.1168   -1.3388   -0.0463 C   0  0  0  0  0  0  0  0  0  0  0  0
   -1.5633   -0.0327    0.0626 N   0  0  0  0  0  0  0  0  0  0  0  0
   -0.2726    0.2792    0.1114 N   0  0  0  0  0  0  0  0  0  0  0  0
    1.6268   -1.4465    1.0039 H   0  0  0  0  0  0  0  0  0  0  0  0
    1.8257    0.0914    0.1043 H   0  0  0  0  0  0  0  0  0  0  0  0
    2.5586   -1.0825    0.0000 H   0  0  0  0  0  0  0  0  0  0  0  0
   -0.2472   -2.9598   -0.2944 H   0  0  0  0  0  0  0  0  0  0  0  0
   -2.0506   -4.0648    0.0804 H   0  0  0  0  0  0  0  0  0  0  0  0
   -4.1974   -5.2203    0.1255 H   0  0  0  0  0  0  0  0  0  0  0  0
   -6.3145   -3.9513    0.0485 H   0  0  0  0  0  0  0  0  0  0  0  0
   -4.1054   -0.2484   -0.0865 H   0  0  0  0  0  0  0  0  0  0  0  0
  1  2  1  0  0  0  0
  1 17  1  0  0  0  0
  1 18  1  0  0  0  0
  1 19  1  0  0  0  0
  2 16  1  0  0  0  0
  2  3  2  0  0  0  0
  3  4  1  0  0  0  0
  3 20  1  0  0  0  0
  4  5  1  0  0  0  0
  4 15  1  0  0  0  0
  5 14  2  0  0  0  0
  5  6  1  0  0  0  0
  6  7  2  0  0  0  0
  6 21  1  0  0  0  0
  7  8  1  0  0  0  0
  7 22  1  0  0  0  0
  8  9  2  0  0  0  0
  8 23  1  0  0  0  0
  9 10  1  0  0  0  0
  9 14  1  0  0  0  0
 10 11  1  0  0  0  0
 10 12  1  0  0  0  0
 10 13  1  0  0  0  0
 14 24  1  0  0  0  0
 15 16  2  0  0  0  0
M  END
$$$$
