
 OpenBabel03202621392D

 33 33  0  0  1  0  0  0  0  0999 V2000
    1.7321    3.0000    0.0000 C   0  0  0  0  0  0  0  0  0  0  0  0
    1.7321    2.0000    0.0000 O   0  0  0  0  0  0  0  0  0  0  0  0
    2.6128    2.0429   -1.1536 C   0  0  0  0  0  0  0  0  0  0  0  0
    3.2988    2.9075   -1.6345 O   0  0  0  0  0  0  0  0  0  0  0  0
    2.4123    0.6827   -1.5067 C   0  0  2  0  0  0  0  0  0  0  0  0
    3.4641    0.0000    0.0000 S   0  0  0  0  0  0  0  0  0  0  0  0
    3.4641   -1.0000    0.0000 C   0  0  0  0  0  0  0  0  0  0  0  0
    0.7969    0.7913   -1.3777 C   0  0  1  0  0  0  0  0  0  0  0  0
   -0.0582    0.4735   -2.4999 O   0  0  0  0  0  0  0  0  0  0  0  0
   -0.1450    1.0329    0.0975 C   0  0  0  0  0  0  0  0  0  0  0  0
   -0.4518    2.0157    1.0637 C   0  0  0  0  0  0  0  0  0  0  0  0
   -1.7570    2.4342    1.0965 C   0  0  0  0  0  0  0  0  0  0  0  0
   -2.1045    4.0642    1.5125 Cl  0  0  0  0  0  0  0  0  0  0  0  0
   -2.6018    1.5227    0.6223 C   0  0  0  0  0  0  0  0  0  0  0  0
   -2.1628    0.1753    0.3426 C   0  0  0  0  0  0  0  0  0  0  0  0
   -0.7988   -0.0409    0.3614 C   0  0  0  0  0  0  0  0  0  0  0  0
    0.0000   -1.0000    0.0000 O   0  0  0  0  0  0  0  0  0  0  0  0
    0.8660   -1.5000    0.0000 C   0  0  0  0  0  0  0  0  0  0  0  0
    1.9862    3.2186    1.0576 H   0  0  0  0  0  0  0  0  0  0  0  0
    0.7237    3.2920   -0.3619 H   0  0  0  0  0  0  0  0  0  0  0  0
    1.7321    4.0700    0.0000 H   0  0  0  0  0  0  0  0  0  0  0  0
    2.7957    0.4352   -2.5162 H   0  0  0  0  0  0  0  0  0  0  0  0
    4.1172   -1.1815   -0.8766 H   0  0  0  0  0  0  0  0  0  0  0  0
    4.0750   -1.1694    0.9071 H   0  0  0  0  0  0  0  0  0  0  0  0
    3.4641   -2.0700    0.0000 H   0  0  0  0  0  0  0  0  0  0  0  0
    1.0549   -0.2078   -1.3067 H   0  0  0  0  0  0  0  0  0  0  0  0
   -0.7874   -0.0558   -2.0778 H   0  0  0  0  0  0  0  0  0  0  0  0
    0.2726    2.6060    1.6932 H   0  0  0  0  0  0  0  0  0  0  0  0
   -3.6757    1.8201    0.4184 H   0  0  0  0  0  0  0  0  0  0  0  0
   -2.8636   -0.5655    0.0383 H   0  0  0  0  0  0  0  0  0  0  0  0
    0.6109   -2.3007   -0.7259 H   0  0  0  0  0  0  0  0  0  0  0  0
    0.8220   -1.9531    1.0137 H   0  0  0  0  0  0  0  0  0  0  0  0
    1.7926   -2.0350    0.0000 H   0  0  0  0  0  0  0  0  0  0  0  0
  1  2  1  0  0  0  0
  1 19  1  0  0  0  0
  1 20  1  0  0  0  0
  1 21  1  0  0  0  0
  2  3  1  0  0  0  0
  3  4  2  0  0  0  0
  5  3  1  0  0  0  0
  5  6  1  0  0  0  0
  5  8  1  0  0  0  0
  5 22  1  1  0  0  0
  6  7  1  0  0  0  0
  7 23  1  0  0  0  0
  7 24  1  0  0  0  0
  7 25  1  0  0  0  0
  8  9  1  0  0  0  0
  8 10  1  0  0  0  0
  8 26  1  6  0  0  0
  9 27  1  0  0  0  0
 10 16  2  0  0  0  0
 10 11  1  0  0  0  0
 11 12  2  0  0  0  0
 11 28  1  0  0  0  0
 12 13  1  0  0  0  0
 12 14  1  0  0  0  0
 14 15  2  0  0  0  0
 14 29  1  0  0  0  0
 15 16  1  0  0  0  0
 15 30  1  0  0  0  0
 16 17  1  0  0  0  0
 17 18  1  0  0  0  0
 18 31  1  0  0  0  0
 18 32  1  0  0  0  0
 18 33  1  0  0  0  0
M  END
$$$$
