
 OpenBabel03202621322D

 30 31  0  0  1  0  0  0  0  0999 V2000
    2.5411    0.5878    0.0000 C   0  0  0  0  0  0  0  0  0  0  0  0
    2.5411    1.5878    0.0000 C   0  0  2  0  0  0  0  0  0  0  0  0
    3.8719    2.2558    0.3640 C   0  0  0  0  0  0  0  0  0  0  0  0
    5.1390    1.7460    0.4391 C   0  0  0  0  0  0  0  0  0  0  0  0
    6.2599    2.7445    0.1917 C   0  0  0  0  0  0  0  0  0  0  0  0
    7.6413    2.1065    0.0925 C   0  0  0  0  0  0  0  0  0  0  0  0
    7.6467    0.9362   -0.7280 O   0  0  0  0  0  0  0  0  0  0  0  0
    6.7617    0.0387   -0.1873 C   0  0  0  0  0  0  0  0  0  0  0  0
    5.6116    0.3405    0.4672 C   0  0  0  0  0  0  0  0  0  0  0  0
    4.9259   -0.4246    1.1804 O   0  5  0  0  0  0  0  0  0  0  0  0
    1.4011    2.1590    0.7736 O   0  0  0  0  0  0  0  0  0  0  0  0
    0.0563    1.7032    0.3586 C   0  0  0  0  0  0  0  0  0  0  0  0
   -0.3284    0.2207    0.4611 C   0  0  0  0  0  0  0  0  0  0  0  0
    0.2898   -0.6863    1.2846 N   0  0  0  0  0  0  0  0  0  0  0  0
    0.0537   -1.8269    0.6779 C   0  0  0  0  0  0  0  0  0  0  0  0
   -0.8749   -1.7158   -0.3061 O   0  0  0  0  0  0  0  0  0  0  0  0
   -1.1559   -0.3479   -0.4373 N   0  0  0  0  0  0  0  0  0  0  0  0
    1.7634    0.3555   -0.7574 H   0  0  0  0  0  0  0  0  0  0  0  0
    2.3353    0.3608    1.0701 H   0  0  0  0  0  0  0  0  0  0  0  0
    2.5411   -0.4822    0.0000 H   0  0  0  0  0  0  0  0  0  0  0  0
    2.3944    2.0696   -0.9856 H   0  0  0  0  0  0  0  0  0  0  0  0
    3.7830    3.3410    0.3492 H   0  0  0  0  0  0  0  0  0  0  0  0
    6.2670    3.5261    0.9611 H   0  0  0  0  0  0  0  0  0  0  0  0
    6.0558    3.2279   -0.7751 H   0  0  0  0  0  0  0  0  0  0  0  0
    8.3399    2.8188   -0.3575 H   0  0  0  0  0  0  0  0  0  0  0  0
    8.0390    1.8614    1.0875 H   0  0  0  0  0  0  0  0  0  0  0  0
    7.1293   -0.9770   -0.2774 H   0  0  0  0  0  0  0  0  0  0  0  0
   -0.6611    2.2665    0.9610 H   0  0  0  0  0  0  0  0  0  0  0  0
   -0.0794    2.0179   -0.6858 H   0  0  0  0  0  0  0  0  0  0  0  0
    0.5078   -2.7901    0.8367 H   0  0  0  0  0  0  0  0  0  0  0  0
  1 18  1  0  0  0  0
  1 19  1  0  0  0  0
  1 20  1  0  0  0  0
  2  1  1  0  0  0  0
  2  3  1  0  0  0  0
  2 11  1  0  0  0  0
  2 21  1  6  0  0  0
  3  4  2  3  0  0  0
  3 22  1  0  0  0  0
  4  9  1  0  0  0  0
  4  5  1  0  0  0  0
  5  6  1  0  0  0  0
  5 23  1  0  0  0  0
  5 24  1  0  0  0  0
  6  7  1  0  0  0  0
  6 25  1  0  0  0  0
  6 26  1  0  0  0  0
  7  8  1  0  0  0  0
  8  9  2  0  0  0  0
  8 27  1  0  0  0  0
  9 10  1  0  0  0  0
 11 12  1  0  0  0  0
 12 13  1  0  0  0  0
 12 28  1  0  0  0  0
 12 29  1  0  0  0  0
 13 17  2  0  0  0  0
 13 14  1  0  0  0  0
 14 15  2  0  0  0  0
 15 16  1  0  0  0  0
 15 30  1  0  0  0  0
 16 17  1  0  0  0  0
M  CHG  1  10  -1
M  END
$$$$
