
 OpenBabel03202621402D

 21 21  0  0  0  0  0  0  0  0999 V2000
    2.2953   -1.9260    0.0000 C   0  0  0  0  0  0  0  0  0  0  0  0
    2.5032   -0.9479    0.0000 S   0  0  0  0  0  0  0  0  0  0  0  0
    1.1392    0.1024    0.3032 C   0  0  0  0  0  0  0  0  0  0  0  0
    1.3213    1.1489    0.9178 O   0  0  0  0  0  0  0  0  0  0  0  0
   -0.2064   -0.2788   -0.3005 C   0  0  0  0  0  0  0  0  0  0  0  0
   -0.8018   -1.5715    0.2516 C   0  0  0  0  0  0  0  0  0  0  0  0
   -2.2816   -1.4792   -0.0862 C   0  0  0  0  0  0  0  0  0  0  0  0
   -2.6188    0.0062   -0.0923 C   0  0  0  0  0  0  0  0  0  0  0  0
   -1.2933    0.7444    0.0505 C   0  0  0  0  0  0  0  0  0  0  0  0
    2.1381   -2.0852    1.0869 H   0  0  0  0  0  0  0  0  0  0  0  0
    3.3021   -2.3143   -0.2457 H   0  0  0  0  0  0  0  0  0  0  0  0
    2.0728   -2.9726    0.0000 H   0  0  0  0  0  0  0  0  0  0  0  0
   -0.1031   -0.3335   -1.3916 H   0  0  0  0  0  0  0  0  0  0  0  0
   -0.3597   -2.4660   -0.1964 H   0  0  0  0  0  0  0  0  0  0  0  0
   -0.6578   -1.6354    1.3367 H   0  0  0  0  0  0  0  0  0  0  0  0
   -2.4647   -1.9022   -1.0818 H   0  0  0  0  0  0  0  0  0  0  0  0
   -2.8945   -2.0402    0.6270 H   0  0  0  0  0  0  0  0  0  0  0  0
   -3.2972    0.2662    0.7276 H   0  0  0  0  0  0  0  0  0  0  0  0
   -3.1190    0.2777   -1.0286 H   0  0  0  0  0  0  0  0  0  0  0  0
   -1.2459    1.6287   -0.5944 H   0  0  0  0  0  0  0  0  0  0  0  0
   -1.1893    1.0959    1.0851 H   0  0  0  0  0  0  0  0  0  0  0  0
  1  2  1  0  0  0  0
  1 10  1  0  0  0  0
  1 11  1  0  0  0  0
  1 12  1  0  0  0  0
  2  3  1  0  0  0  0
  3  4  2  0  0  0  0
  3  5  1  0  0  0  0
  5  9  1  0  0  0  0
  5  6  1  0  0  0  0
  5 13  1  0  0  0  0
  6  7  1  0  0  0  0
  6 14  1  0  0  0  0
  6 15  1  0  0  0  0
  7  8  1  0  0  0  0
  7 16  1  0  0  0  0
  7 17  1  0  0  0  0
  8  9  1  0  0  0  0
  8 18  1  0  0  0  0
  8 19  1  0  0  0  0
  9 20  1  0  0  0  0
  9 21  1  0  0  0  0
M  END
$$$$
