
 OpenBabel03202621302D

 15 15  0  0  0  0  0  0  0  0999 V2000
    2.2953   -1.9260    0.0000 C   0  0  0  0  0  0  0  0  0  0  0  0
    2.5032   -0.9479    0.0000 S   0  0  0  0  0  0  0  0  0  0  0  0
    1.1626    0.2029    0.0000 C   0  0  0  0  0  0  0  0  0  0  0  0
    1.4343    1.4064    0.0000 O   0  0  0  0  0  0  0  0  0  0  0  0
   -0.2480   -0.2525    0.0000 C   0  0  0  0  0  0  0  0  0  0  0  0
   -0.9186   -1.5254    0.0000 C   0  0  0  0  0  0  0  0  0  0  0  0
   -2.2672   -1.2928    0.0000 C   0  0  0  0  0  0  0  0  0  0  0  0
   -2.5042    0.0363   -0.0000 O   0  0  0  0  0  0  0  0  0  0  0  0
   -1.2999    0.6553    0.0000 C   0  0  0  0  0  0  0  0  0  0  0  0
    1.2528   -2.1139   -0.0000 H   0  0  0  0  0  0  0  0  0  0  0  0
    3.2606   -2.4409   -0.0000 H   0  0  0  0  0  0  0  0  0  0  0  0
    2.0728   -2.9726    0.0000 H   0  0  0  0  0  0  0  0  0  0  0  0
   -0.5272   -2.5351    0.0000 H   0  0  0  0  0  0  0  0  0  0  0  0
   -3.1299   -1.9446   -0.0000 H   0  0  0  0  0  0  0  0  0  0  0  0
   -1.3329    1.7339   -0.0000 H   0  0  0  0  0  0  0  0  0  0  0  0
  1  2  1  0  0  0  0
  1 10  1  0  0  0  0
  1 11  1  0  0  0  0
  1 12  1  0  0  0  0
  2  3  1  0  0  0  0
  3  4  2  0  0  0  0
  3  5  1  0  0  0  0
  5  9  2  0  0  0  0
  5  6  1  0  0  0  0
  6  7  2  0  0  0  0
  6 13  1  0  0  0  0
  7  8  1  0  0  0  0
  7 14  1  0  0  0  0
  8  9  1  0  0  0  0
  9 15  1  0  0  0  0
M  END
$$$$
