
 OpenBabel03202621312D

 25 26  0  0  0  0  0  0  0  0999 V2000
    1.8171   -2.8090    0.0000 C   0  0  0  0  0  0  0  0  0  0  0  0
    1.8171   -1.8090    0.0000 C   0  0  0  0  0  0  0  0  0  0  0  0
    2.9646   -1.0586    0.0505 N   0  0  0  0  0  0  0  0  0  0  0  0
    2.9839    0.3061    0.0113 C   0  0  0  0  0  0  0  0  0  0  0  0
    4.5781    1.1149    0.0215 S   0  0  0  0  0  0  0  0  0  0  0  0
    5.7806   -0.1513   -0.0793 C   0  0  0  0  0  0  0  0  0  0  0  0
    5.6333   -1.2585   -0.5801 O   0  0  0  0  0  0  0  0  0  0  0  0
    1.8128    1.0540   -0.0074 C   0  0  0  0  0  0  0  0  0  0  0  0
    1.7935    2.4831    0.0134 C   0  0  0  0  0  0  0  0  0  0  0  0
    1.7572    3.6390    0.0298 N   0  0  0  0  0  0  0  0  0  0  0  0
    0.6239    0.3432   -0.0169 C   0  0  0  0  0  0  0  0  0  0  0  0
    0.6417   -1.0550   -0.0351 C   0  0  0  0  0  0  0  0  0  0  0  0
   -0.7643   -1.6008   -0.0025 C   0  0  0  0  0  0  0  0  0  0  0  0
   -1.6419   -0.3562   -0.1615 C   0  0  0  0  0  0  0  0  0  0  0  0
   -0.7695    0.8825    0.0628 C   0  0  0  0  0  0  0  0  0  0  0  0
    1.6766   -2.9825    1.0950 H   0  0  0  0  0  0  0  0  0  0  0  0
    2.8737   -3.0590   -0.2664 H   0  0  0  0  0  0  0  0  0  0  0  0
    1.8171   -3.8790    0.0000 H   0  0  0  0  0  0  0  0  0  0  0  0
    6.7678    0.1572    0.3031 H   0  0  0  0  0  0  0  0  0  0  0  0
   -0.9382   -2.3041   -0.8232 H   0  0  0  0  0  0  0  0  0  0  0  0
   -0.9574   -2.0967    0.9542 H   0  0  0  0  0  0  0  0  0  0  0  0
   -2.4908   -0.3768    0.5317 H   0  0  0  0  0  0  0  0  0  0  0  0
   -2.0693   -0.3305   -1.1715 H   0  0  0  0  0  0  0  0  0  0  0  0
   -0.9515    1.3114    1.0534 H   0  0  0  0  0  0  0  0  0  0  0  0
   -0.9638    1.6369   -0.7056 H   0  0  0  0  0  0  0  0  0  0  0  0
  1  2  1  0  0  0  0
  1 16  1  0  0  0  0
  1 17  1  0  0  0  0
  1 18  1  0  0  0  0
  2 12  2  0  0  0  0
  2  3  1  0  0  0  0
  3  4  2  0  0  0  0
  4  5  1  0  0  0  0
  4  8  1  0  0  0  0
  5  6  1  0  0  0  0
  6  7  2  0  0  0  0
  6 19  1  0  0  0  0
  8  9  1  0  0  0  0
  8 11  2  0  0  0  0
  9 10  3  0  0  0  0
 11 15  1  0  0  0  0
 11 12  1  0  0  0  0
 12 13  1  0  0  0  0
 13 14  1  0  0  0  0
 13 20  1  0  0  0  0
 13 21  1  0  0  0  0
 14 15  1  0  0  0  0
 14 22  1  0  0  0  0
 14 23  1  0  0  0  0
 15 24  1  0  0  0  0
 15 25  1  0  0  0  0
M  END
$$$$
