
 OpenBabel03202621362D

 32 34  0  0  0  0  0  0  0  0999 V2000
    1.4945   -0.9706    0.0000 C   0  0  0  0  0  0  0  0  0  0  0  0
    0.5000   -0.8660    0.0000 C   0  0  0  0  0  0  0  0  0  0  0  0
   -0.4030   -1.8730    0.3183 C   0  0  0  0  0  0  0  0  0  0  0  0
   -1.6641   -1.4319   -0.0164 N   0  0  0  0  0  0  0  0  0  0  0  0
   -2.8578   -2.2126   -0.1003 C   0  0  0  0  0  0  0  0  0  0  0  0
   -2.8238   -3.5646    0.3081 C   0  0  0  0  0  0  0  0  0  0  0  0
   -3.9171   -4.4098    0.0973 C   0  0  0  0  0  0  0  0  0  0  0  0
   -5.0512   -3.9317   -0.5398 C   0  0  0  0  0  0  0  0  0  0  0  0
   -5.1074   -2.5947   -0.9331 C   0  0  0  0  0  0  0  0  0  0  0  0
   -4.0459   -1.7161   -0.6632 C   0  0  0  0  0  0  0  0  0  0  0  0
   -4.1383   -0.4273   -1.1249 O   0  0  0  0  0  0  0  0  0  0  0  0
   -4.9456    0.4753   -0.4635 C   0  0  0  0  0  0  0  0  0  0  0  0
   -4.5712    1.8140   -0.6290 C   0  0  0  0  0  0  0  0  0  0  0  0
   -5.3434    2.8421   -0.0868 C   0  0  0  0  0  0  0  0  0  0  0  0
   -6.5065    2.5407    0.6162 C   0  0  0  0  0  0  0  0  0  0  0  0
   -6.8830    1.2106    0.7951 C   0  0  0  0  0  0  0  0  0  0  0  0
   -6.0995    0.1791    0.2665 C   0  0  0  0  0  0  0  0  0  0  0  0
   -1.5595   -0.1340   -0.3761 N   0  0  0  0  0  0  0  0  0  0  0  0
   -0.2743    0.2094   -0.3870 N   0  0  0  0  0  0  0  0  0  0  0  0
    1.6722   -0.9746   -1.1021 H   0  0  0  0  0  0  0  0  0  0  0  0
    1.7919    0.0173    0.4251 H   0  0  0  0  0  0  0  0  0  0  0  0
    2.5586   -1.0825    0.0000 H   0  0  0  0  0  0  0  0  0  0  0  0
   -0.2116   -2.8860    0.6357 H   0  0  0  0  0  0  0  0  0  0  0  0
   -1.9519   -4.0068    0.7797 H   0  0  0  0  0  0  0  0  0  0  0  0
   -3.8643   -5.4528    0.4054 H   0  0  0  0  0  0  0  0  0  0  0  0
   -5.8892   -4.5941   -0.7409 H   0  0  0  0  0  0  0  0  0  0  0  0
   -5.9863   -2.2350   -1.4639 H   0  0  0  0  0  0  0  0  0  0  0  0
   -3.6645    2.0517   -1.1811 H   0  0  0  0  0  0  0  0  0  0  0  0
   -5.0378    3.8761   -0.2217 H   0  0  0  0  0  0  0  0  0  0  0  0
   -7.1197    3.3403    1.0238 H   0  0  0  0  0  0  0  0  0  0  0  0
   -7.7934    0.9741    1.3398 H   0  0  0  0  0  0  0  0  0  0  0  0
   -6.4340   -0.8385    0.4269 H   0  0  0  0  0  0  0  0  0  0  0  0
  1  2  1  0  0  0  0
  1 20  1  0  0  0  0
  1 21  1  0  0  0  0
  1 22  1  0  0  0  0
  2 19  1  0  0  0  0
  2  3  2  0  0  0  0
  3  4  1  0  0  0  0
  3 23  1  0  0  0  0
  4  5  1  0  0  0  0
  4 18  1  0  0  0  0
  5 10  2  0  0  0  0
  5  6  1  0  0  0  0
  6  7  2  0  0  0  0
  6 24  1  0  0  0  0
  7  8  1  0  0  0  0
  7 25  1  0  0  0  0
  8  9  2  0  0  0  0
  8 26  1  0  0  0  0
  9 10  1  0  0  0  0
  9 27  1  0  0  0  0
 10 11  1  0  0  0  0
 11 12  1  0  0  0  0
 12 17  2  0  0  0  0
 12 13  1  0  0  0  0
 13 14  2  0  0  0  0
 13 28  1  0  0  0  0
 14 15  1  0  0  0  0
 14 29  1  0  0  0  0
 15 16  2  0  0  0  0
 15 30  1  0  0  0  0
 16 17  1  0  0  0  0
 16 31  1  0  0  0  0
 17 32  1  0  0  0  0
 18 19  2  0  0  0  0
M  END
$$$$
