
 OpenBabel03202621312D

 35 35  0  0  1  0  0  0  0  0999 V2000
    2.5981    1.5000    0.0000 C   0  0  0  0  0  0  0  0  0  0  0  0
    1.7321    2.0000    0.0000 C   0  0  0  0  0  0  0  0  0  0  0  0
    0.8660    1.5000    0.0000 C   0  0  2  0  0  0  0  0  0  0  0  0
    1.3660    0.6340    0.0000 S   0  0  0  0  0  0  0  0  0  0  0  0
    0.8660   -0.2321    0.0000 C   0  0  0  0  0  0  0  0  0  0  0  0
   -0.9081    0.9765   -0.4989 C   0  0  0  0  0  0  0  0  0  0  0  0
   -2.0467    1.2146    0.3568 C   0  0  0  0  0  0  0  0  0  0  0  0
   -3.2218    0.4637    0.2540 C   0  0  0  0  0  0  0  0  0  0  0  0
   -3.2815   -0.6200   -0.6079 C   0  0  0  0  0  0  0  0  0  0  0  0
   -2.2482   -0.8460   -1.5085 C   0  0  0  0  0  0  0  0  0  0  0  0
   -1.1290    0.0058   -1.5519 C   0  0  0  0  0  0  0  0  0  0  0  0
    0.3660    2.3660    0.0000 C   0  0  2  0  0  0  0  0  0  0  0  0
   -0.3208    2.9361   -1.3948 O   0  0  0  0  0  0  0  0  0  0  0  0
    0.6243    3.7974    0.1317 C   0  0  0  0  0  0  0  0  0  0  0  0
    0.0806    4.8758    0.2359 O   0  0  0  0  0  0  0  0  0  0  0  0
    1.8660    3.2321    0.0000 O   0  0  0  0  0  0  0  0  0  0  0  0
    2.3660    4.0981    0.0000 C   0  0  0  0  0  0  0  0  0  0  0  0
    3.2578    1.8994    0.8894 H   0  0  0  0  0  0  0  0  0  0  0  0
    3.2662    1.8857   -0.8862 H   0  0  0  0  0  0  0  0  0  0  0  0
    3.5247    0.9650    0.0000 H   0  0  0  0  0  0  0  0  0  0  0  0
    1.7915    2.3244   -1.3746 H   0  0  0  0  0  0  0  0  0  0  0  0
    1.7657    2.3140    1.3802 H   0  0  0  0  0  0  0  0  0  0  0  0
    0.9514   -0.5306    1.0799 H   0  0  0  0  0  0  0  0  0  0  0  0
    1.5959   -0.8804   -0.5433 H   0  0  0  0  0  0  0  0  0  0  0  0
    0.3310   -1.1588    0.0000 H   0  0  0  0  0  0  0  0  0  0  0  0
   -2.0680    1.9774    1.1336 H   0  0  0  0  0  0  0  0  0  0  0  0
   -4.0671    0.6910    0.9047 H   0  0  0  0  0  0  0  0  0  0  0  0
   -4.1393   -1.2944   -0.5696 H   0  0  0  0  0  0  0  0  0  0  0  0
   -2.2775   -1.7318   -2.1407 H   0  0  0  0  0  0  0  0  0  0  0  0
   -0.3327   -0.2481   -2.2528 H   0  0  0  0  0  0  0  0  0  0  0  0
   -0.3454    2.5220    0.8603 H   0  0  0  0  0  0  0  0  0  0  0  0
   -1.1652    3.3619   -1.1178 H   0  0  0  0  0  0  0  0  0  0  0  0
    3.3572    3.8187   -0.4254 H   0  0  0  0  0  0  0  0  0  0  0  0
    2.5598    4.2621    1.0987 H   0  0  0  0  0  0  0  0  0  0  0  0
    2.9010    5.0247    0.0000 H   0  0  0  0  0  0  0  0  0  0  0  0
  1  2  1  0  0  0  0
  1 18  1  0  0  0  0
  1 19  1  0  0  0  0
  1 20  1  0  0  0  0
  2 21  1  0  0  0  0
  2 22  1  0  0  0  0
  3  2  1  0  0  0  0
  3  4  1  1  0  0  0
  3  6  1  0  0  0  0
  3 12  1  0  0  0  0
  4  5  1  0  0  0  0
  5 23  1  0  0  0  0
  5 24  1  0  0  0  0
  5 25  1  0  0  0  0
  6 11  2  0  0  0  0
  6  7  1  0  0  0  0
  7  8  2  0  0  0  0
  7 26  1  0  0  0  0
  8  9  1  0  0  0  0
  8 27  1  0  0  0  0
  9 10  2  0  0  0  0
  9 28  1  0  0  0  0
 10 11  1  0  0  0  0
 10 29  1  0  0  0  0
 11 30  1  0  0  0  0
 12 13  1  0  0  0  0
 12 14  1  0  0  0  0
 12 31  1  1  0  0  0
 13 32  1  0  0  0  0
 14 15  2  0  0  0  0
 14 16  1  0  0  0  0
 16 17  1  0  0  0  0
 17 33  1  0  0  0  0
 17 34  1  0  0  0  0
 17 35  1  0  0  0  0
M  END
$$$$
