
 OpenBabel03202621352D

 23 24  0  0  0  0  0  0  0  0999 V2000
    1.4945   -0.9706    0.0000 C   0  0  0  0  0  0  0  0  0  0  0  0
    0.5000   -0.8660    0.0000 C   0  0  0  0  0  0  0  0  0  0  0  0
   -0.4528   -1.8542    0.1864 C   0  0  0  0  0  0  0  0  0  0  0  0
   -1.6972   -1.2810    0.0411 N   0  0  0  0  0  0  0  0  0  0  0  0
   -2.9350   -1.9596    0.0041 C   0  0  0  0  0  0  0  0  0  0  0  0
   -2.9313   -3.3656   -0.0198 C   0  0  0  0  0  0  0  0  0  0  0  0
   -4.1150   -4.1121   -0.0031 C   0  0  0  0  0  0  0  0  0  0  0  0
   -4.0061   -5.6105   -0.0211 C   0  0  0  0  0  0  0  0  0  0  0  0
   -5.4905   -6.4821    0.3781 Cl  0  0  0  0  0  0  0  0  0  0  0  0
   -5.2916   -3.3834   -0.0158 C   0  0  0  0  0  0  0  0  0  0  0  0
   -5.3427   -2.0294   -0.0190 N   0  0  0  0  0  0  0  0  0  0  0  0
   -4.1741   -1.3362   -0.0049 C   0  0  0  0  0  0  0  0  0  0  0  0
   -4.4714    0.3541    0.0290 Cl  0  0  0  0  0  0  0  0  0  0  0  0
   -1.5284    0.0434   -0.0840 N   0  0  0  0  0  0  0  0  0  0  0  0
   -0.2291    0.3056   -0.1101 N   0  0  0  0  0  0  0  0  0  0  0  0
    1.6112   -1.7698   -0.7759 H   0  0  0  0  0  0  0  0  0  0  0  0
    1.8096   -0.0271   -0.5118 H   0  0  0  0  0  0  0  0  0  0  0  0
    2.5586   -1.0825    0.0000 H   0  0  0  0  0  0  0  0  0  0  0  0
   -0.3106   -2.9086    0.3632 H   0  0  0  0  0  0  0  0  0  0  0  0
   -2.0015   -3.9295   -0.0689 H   0  0  0  0  0  0  0  0  0  0  0  0
   -3.2566   -5.9238    0.7157 H   0  0  0  0  0  0  0  0  0  0  0  0
   -3.6698   -5.9438   -1.0087 H   0  0  0  0  0  0  0  0  0  0  0  0
   -6.2684   -3.8583   -0.0224 H   0  0  0  0  0  0  0  0  0  0  0  0
  1  2  1  0  0  0  0
  1 16  1  0  0  0  0
  1 17  1  0  0  0  0
  1 18  1  0  0  0  0
  2 15  1  0  0  0  0
  2  3  2  0  0  0  0
  3  4  1  0  0  0  0
  3 19  1  0  0  0  0
  4  5  1  0  0  0  0
  4 14  1  0  0  0  0
  5 12  2  0  0  0  0
  5  6  1  0  0  0  0
  6  7  2  0  0  0  0
  6 20  1  0  0  0  0
  7  8  1  0  0  0  0
  7 10  1  0  0  0  0
  8  9  1  0  0  0  0
  8 21  1  0  0  0  0
  8 22  1  0  0  0  0
 10 11  2  0  0  0  0
 10 23  1  0  0  0  0
 11 12  1  0  0  0  0
 12 13  1  0  0  0  0
 14 15  2  0  0  0  0
M  END
$$$$
