
 OpenBabel03202621312D

 40 42  0  0  0  0  0  0  0  0999 V2000
   -1.0151   -3.9262   -0.0332 O   0  0  0  0  0  0  0  0  0  0  0  0
   -0.0791   -3.1257   -0.0529 C   0  0  0  0  0  0  0  0  0  0  0  0
    1.2145   -3.6001   -0.1666 N   0  0  0  0  0  0  0  0  0  0  0  0
    2.4069   -2.8537   -0.1426 C   0  0  0  0  0  0  0  0  0  0  0  0
    2.5273   -1.6399    0.5333 C   0  0  0  0  0  0  0  0  0  0  0  0
    3.7185   -0.9173    0.5100 C   0  0  0  0  0  0  0  0  0  0  0  0
    4.8319   -1.4110   -0.1695 C   0  0  0  0  0  0  0  0  0  0  0  0
    6.1190   -0.6169   -0.1461 C   0  0  0  0  0  0  0  0  0  0  0  0
    7.3900   -1.4059    0.1100 C   0  0  0  0  0  0  0  0  0  0  0  0
    8.6127   -0.8924   -0.3445 C   0  0  0  0  0  0  0  0  0  0  0  0
    9.7931   -1.6180   -0.1767 C   0  0  0  0  0  0  0  0  0  0  0  0
    9.7659   -2.8633    0.4485 C   0  0  0  0  0  0  0  0  0  0  0  0
    8.5681   -3.3614    0.9518 C   0  0  0  0  0  0  0  0  0  0  0  0
    7.3951   -2.6219    0.8123 C   0  0  0  0  0  0  0  0  0  0  0  0
    4.7052   -2.6221   -0.8692 C   0  0  0  0  0  0  0  0  0  0  0  0
    3.5167   -3.3590   -0.8199 C   0  0  0  0  0  0  0  0  0  0  0  0
   -0.1649   -1.7736   -0.0630 O   0  0  0  0  0  0  0  0  0  0  0  0
   -1.2973   -0.9147   -0.0677 C   0  0  0  0  0  0  0  0  0  0  0  0
   -2.5657   -1.3427   -0.0525 C   0  0  0  0  0  0  0  0  0  0  0  0
   -3.7083   -0.3826   -0.0801 C   0  0  0  0  0  0  0  0  0  0  0  0
   -3.4033    0.9877   -0.3393 O   0  0  0  0  0  0  0  0  0  0  0  0
   -2.0859    1.3423   -0.2564 C   0  0  0  0  0  0  0  0  0  0  0  0
   -1.0202    0.5314   -0.1076 C   0  0  0  0  0  0  0  0  0  0  0  0
    0.1951    0.8417   -0.0090 O   0  5  0  0  0  0  0  0  0  0  0  0
    1.2523   -4.5677   -0.4454 H   0  0  0  0  0  0  0  0  0  0  0  0
    1.7033   -1.2076    1.0964 H   0  0  0  0  0  0  0  0  0  0  0  0
    3.7420    0.0436    1.0206 H   0  0  0  0  0  0  0  0  0  0  0  0
    6.0621    0.1591    0.6290 H   0  0  0  0  0  0  0  0  0  0  0  0
    6.1964   -0.0998   -1.1117 H   0  0  0  0  0  0  0  0  0  0  0  0
    8.6465    0.0746   -0.8420 H   0  0  0  0  0  0  0  0  0  0  0  0
   10.7317   -1.2145   -0.5447 H   0  0  0  0  0  0  0  0  0  0  0  0
   10.6783   -3.4426    0.5511 H   0  0  0  0  0  0  0  0  0  0  0  0
    8.5375   -4.3273    1.4477 H   0  0  0  0  0  0  0  0  0  0  0  0
    6.4736   -3.0244    1.2298 H   0  0  0  0  0  0  0  0  0  0  0  0
    5.5437   -3.0120   -1.4418 H   0  0  0  0  0  0  0  0  0  0  0  0
    3.4588   -4.3006   -1.3566 H   0  0  0  0  0  0  0  0  0  0  0  0
   -2.8086   -2.3945   -0.0143 H   0  0  0  0  0  0  0  0  0  0  0  0
   -4.4169   -0.6983   -0.8555 H   0  0  0  0  0  0  0  0  0  0  0  0
   -4.2369   -0.4270    0.8797 H   0  0  0  0  0  0  0  0  0  0  0  0
   -1.9670    2.4151   -0.3407 H   0  0  0  0  0  0  0  0  0  0  0  0
  1  2  2  0  0  0  0
  2  3  1  0  0  0  0
  2 17  1  0  0  0  0
  3  4  1  0  0  0  0
  3 25  1  0  0  0  0
  4 16  2  0  0  0  0
  4  5  1  0  0  0  0
  5  6  2  0  0  0  0
  5 26  1  0  0  0  0
  6  7  1  0  0  0  0
  6 27  1  0  0  0  0
  7  8  1  0  0  0  0
  7 15  2  0  0  0  0
  8  9  1  0  0  0  0
  8 28  1  0  0  0  0
  8 29  1  0  0  0  0
  9 14  2  0  0  0  0
  9 10  1  0  0  0  0
 10 11  2  0  0  0  0
 10 30  1  0  0  0  0
 11 12  1  0  0  0  0
 11 31  1  0  0  0  0
 12 13  2  0  0  0  0
 12 32  1  0  0  0  0
 13 14  1  0  0  0  0
 13 33  1  0  0  0  0
 14 34  1  0  0  0  0
 15 16  1  0  0  0  0
 15 35  1  0  0  0  0
 16 36  1  0  0  0  0
 17 18  1  0  0  0  0
 18 23  1  0  0  0  0
 18 19  2  0  0  0  0
 19 20  1  0  0  0  0
 19 37  1  0  0  0  0
 20 21  1  0  0  0  0
 20 38  1  0  0  0  0
 20 39  1  0  0  0  0
 21 22  1  0  0  0  0
 22 23  2  0  0  0  0
 22 40  1  0  0  0  0
 23 24  1  0  0  0  0
M  CHG  1  24  -1
M  END
$$$$
