
 OpenBabel03202621282D

 16 17  0  0  1  0  0  0  0  0999 V2000
    0.7615    2.4945    0.0000 C   0  0  0  0  0  0  0  0  0  0  0  0
   -0.1045    2.9945    0.0000 C   0  0  0  0  0  0  0  0  0  0  0  0
   -0.9706    2.4945    0.0000 C   0  0  0  0  0  0  0  0  0  0  0  0
   -0.9706    1.4945    0.0000 C   0  0  1  0  0  0  0  0  0  0  0  0
   -1.8366    0.9945    0.0000 C   0  0  0  0  0  0  0  0  0  0  0  0
   -1.8366   -0.0055    0.0000 C   0  0  0  0  0  0  0  0  0  0  0  0
   -2.7026   -0.5055    0.0000 C   0  0  0  0  0  0  0  0  0  0  0  0
   -3.5686   -0.0055    0.0000 C   0  0  0  0  0  0  0  0  0  0  0  0
   -3.5686    0.9945    0.0000 N   0  0  0  0  0  0  0  0  0  0  0  0
   -2.7026    1.4945    0.0000 C   0  0  0  0  0  0  0  0  0  0  0  0
   -0.1045    0.9945    0.0000 N   0  0  0  0  0  0  0  0  0  0  0  0
    0.8090    1.4013    0.0000 C   0  0  0  0  0  0  0  0  0  0  0  0
    1.4781    0.6581    0.0000 C   0  0  0  0  0  0  0  0  0  0  0  0
    2.4727    0.7626    0.0000 C   0  0  0  0  0  0  0  0  0  0  0  0
    0.9781   -0.2079    0.0000 N   0  0  0  0  0  0  0  0  0  0  0  0
    0.0000   -0.0000    0.0000 N   0  0  0  0  0  0  0  0  0  0  0  0
  1  2  2  0  0  0  0
  2  3  1  0  0  0  0
  4  3  1  6  0  0  0
  4  5  1  0  0  0  0
  4 11  1  0  0  0  0
  5 10  2  0  0  0  0
  5  6  1  0  0  0  0
  6  7  2  0  0  0  0
  7  8  1  0  0  0  0
  8  9  2  0  0  0  0
  9 10  1  0  0  0  0
 11 16  1  0  0  0  0
 11 12  1  0  0  0  0
 12 13  2  0  0  0  0
 13 14  1  0  0  0  0
 13 15  1  0  0  0  0
 15 16  2  0  0  0  0
M  END
$$$$
