
 OpenBabel03202621302D

 24 24  0  0  1  0  0  0  0  0999 V2000
    2.1710    2.0852    0.0000 C   0  0  0  0  0  0  0  0  0  0  0  0
    1.1724    2.0329    0.0000 S   0  0  0  0  0  0  0  0  0  0  0  0
    0.5725    1.4041    1.4380 C   0  0  0  0  0  0  0  0  0  0  0  0
    0.1886    2.1737    2.8488 S   0  0  0  0  0  0  0  0  0  0  0  0
    0.4227    0.0908    1.2508 N   0  0  0  0  0  0  0  0  0  0  0  0
    0.8090   -0.5878    0.0000 C   0  0  2  0  0  0  0  0  0  0  0  0
    1.5919   -1.2100    0.0000 C   0  0  0  0  0  0  0  0  0  0  0  0
   -0.2836   -1.8227    0.1171 C   0  0  0  0  0  0  0  0  0  0  0  0
   -1.6315   -1.2384   -0.2259 C   0  0  0  0  0  0  0  0  0  0  0  0
   -1.2510   -0.1467   -1.1811 C   0  0  0  0  0  0  0  0  0  0  0  0
    0.1851   -0.0636   -1.2111 O   0  0  0  0  0  0  0  0  0  0  0  0
    2.3665    1.7307   -1.0306 H   0  0  0  0  0  0  0  0  0  0  0  0
    2.2885    3.1868    0.0009 H   0  0  0  0  0  0  0  0  0  0  0  0
    3.2395    2.1412    0.0000 H   0  0  0  0  0  0  0  0  0  0  0  0
    0.1312   -0.4428    2.0620 H   0  0  0  0  0  0  0  0  0  0  0  0
    1.8422   -1.2617   -1.0913 H   0  0  0  0  0  0  0  0  0  0  0  0
    2.3815   -0.5624    0.4495 H   0  0  0  0  0  0  0  0  0  0  0  0
    2.4296   -1.8757    0.0000 H   0  0  0  0  0  0  0  0  0  0  0  0
   -0.0764   -2.6138   -0.6281 H   0  0  0  0  0  0  0  0  0  0  0  0
   -0.2974   -2.3152    1.1009 H   0  0  0  0  0  0  0  0  0  0  0  0
   -2.2979   -1.9830   -0.6773 H   0  0  0  0  0  0  0  0  0  0  0  0
   -2.1353   -0.8457    0.6589 H   0  0  0  0  0  0  0  0  0  0  0  0
   -1.6065   -0.3466   -2.1954 H   0  0  0  0  0  0  0  0  0  0  0  0
   -1.6642    0.8148   -0.8612 H   0  0  0  0  0  0  0  0  0  0  0  0
  1  2  1  0  0  0  0
  1 12  1  0  0  0  0
  1 13  1  0  0  0  0
  1 14  1  0  0  0  0
  2  3  1  0  0  0  0
  3  4  2  0  0  0  0
  3  5  1  0  0  0  0
  5 15  1  0  0  0  0
  6  5  1  6  0  0  0
  6 11  1  0  0  0  0
  6  7  1  0  0  0  0
  6  8  1  0  0  0  0
  7 16  1  0  0  0  0
  7 17  1  0  0  0  0
  7 18  1  0  0  0  0
  8  9  1  0  0  0  0
  8 19  1  0  0  0  0
  8 20  1  0  0  0  0
  9 10  1  0  0  0  0
  9 21  1  0  0  0  0
  9 22  1  0  0  0  0
 10 11  1  0  0  0  0
 10 23  1  0  0  0  0
 10 24  1  0  0  0  0
M  END
$$$$
