
 OpenBabel03202621322D

 34 36  0  0  0  0  0  0  0  0999 V2000
   -0.0933   -1.7796    0.0000 C   0  0  0  0  0  0  0  0  0  0  0  0
   -0.5000   -0.8660    0.0000 C   0  0  0  0  0  0  0  0  0  0  0  0
   -1.6429   -0.1551   -0.2779 C   0  0  0  0  0  0  0  0  0  0  0  0
   -1.2971    1.1839   -0.1871 N   0  0  0  0  0  0  0  0  0  0  0  0
   -2.1125    2.3014   -0.4173 C   0  0  0  0  0  0  0  0  0  0  0  0
   -3.0185    2.2060   -1.4683 C   0  0  0  0  0  0  0  0  0  0  0  0
   -4.1394    2.9932   -1.4013 C   0  0  0  0  0  0  0  0  0  0  0  0
   -4.3338    3.7587   -0.2460 C   0  0  0  0  0  0  0  0  0  0  0  0
   -5.7094    3.9851    0.2020 C   0  0  0  0  0  0  0  0  0  0  0  0
   -6.0965    5.1155    0.4465 O   0  0  0  0  0  0  0  0  0  0  0  0
   -6.5470    2.8815    0.2143 N   0  0  0  0  0  0  0  0  0  0  0  0
   -6.1965    1.5315    0.2440 C   0  0  0  0  0  0  0  0  0  0  0  0
   -5.1084    0.8112    0.7816 C   0  0  0  0  0  0  0  0  0  0  0  0
   -5.2039   -0.5160    0.5953 N   0  0  0  0  0  0  0  0  0  0  0  0
   -6.4128   -0.7024    0.0000 N   0  0  0  0  0  0  0  0  0  0  0  0
   -7.0006   -1.5115    0.0000 C   0  0  0  0  0  0  0  0  0  0  0  0
   -6.9787    0.5493   -0.2969 C   0  0  0  0  0  0  0  0  0  0  0  0
   -3.2913    3.9702    0.6367 C   0  0  0  0  0  0  0  0  0  0  0  0
   -2.1511    3.2590    0.5518 N   0  0  0  0  0  0  0  0  0  0  0  0
   -0.0439    1.3213    0.2435 N   0  0  0  0  0  0  0  0  0  0  0  0
    0.4767    0.1186    0.2562 N   0  0  0  0  0  0  0  0  0  0  0  0
   -1.0045   -2.3985   -0.1857 H   0  0  0  0  0  0  0  0  0  0  0  0
    0.1255   -1.8852    1.0939 H   0  0  0  0  0  0  0  0  0  0  0  0
    0.3419   -2.7571    0.0000 H   0  0  0  0  0  0  0  0  0  0  0  0
   -2.6506   -0.4661   -0.5109 H   0  0  0  0  0  0  0  0  0  0  0  0
   -2.9210    1.4534   -2.2441 H   0  0  0  0  0  0  0  0  0  0  0  0
   -4.9438    2.8575   -2.1210 H   0  0  0  0  0  0  0  0  0  0  0  0
   -7.5295    3.1053    0.1512 H   0  0  0  0  0  0  0  0  0  0  0  0
   -4.2567    1.1821    1.3369 H   0  0  0  0  0  0  0  0  0  0  0  0
   -7.4148   -1.5217    1.0384 H   0  0  0  0  0  0  0  0  0  0  0  0
   -6.2824   -2.3573   -0.1174 H   0  0  0  0  0  0  0  0  0  0  0  0
   -7.6295   -2.3772    0.0000 H   0  0  0  0  0  0  0  0  0  0  0  0
   -7.9426    0.6045   -0.7876 H   0  0  0  0  0  0  0  0  0  0  0  0
   -3.3877    4.6056    1.5112 H   0  0  0  0  0  0  0  0  0  0  0  0
  1  2  1  0  0  0  0
  1 22  1  0  0  0  0
  1 23  1  0  0  0  0
  1 24  1  0  0  0  0
  2 21  1  0  0  0  0
  2  3  2  0  0  0  0
  3  4  1  0  0  0  0
  3 25  1  0  0  0  0
  4  5  1  0  0  0  0
  4 20  1  0  0  0  0
  5 19  2  0  0  0  0
  5  6  1  0  0  0  0
  6  7  2  0  0  0  0
  6 26  1  0  0  0  0
  7  8  1  0  0  0  0
  7 27  1  0  0  0  0
  8  9  1  0  0  0  0
  8 18  2  0  0  0  0
  9 10  2  0  0  0  0
  9 11  1  0  0  0  0
 11 12  1  0  0  0  0
 11 28  1  0  0  0  0
 12 17  2  0  0  0  0
 12 13  1  0  0  0  0
 13 14  2  0  0  0  0
 13 29  1  0  0  0  0
 14 15  1  0  0  0  0
 15 16  1  0  0  0  0
 15 17  1  0  0  0  0
 16 30  1  0  0  0  0
 16 31  1  0  0  0  0
 16 32  1  0  0  0  0
 17 33  1  0  0  0  0
 18 19  1  0  0  0  0
 18 34  1  0  0  0  0
 20 21  2  0  0  0  0
M  END
$$$$
