
 OpenBabel03202621322D

 23 22  0  0  1  0  0  0  0  0999 V2000
    2.5981    0.5000    0.0000 C   0  0  0  0  0  0  0  0  0  0  0  0
    2.5981    1.5000    0.0000 O   0  0  0  0  0  0  0  0  0  0  0  0
    1.7724    2.3702    0.7264 C   0  0  0  0  0  0  0  0  0  0  0  0
    0.4549    1.9295    0.2086 C   0  0  2  0  0  0  0  0  0  0  0  0
   -0.6479    2.3158    1.2281 C   0  0  0  0  0  0  0  0  0  0  0  0
   -2.3748    1.7666    0.9188 S   0  0  0  0  0  0  0  0  0  0  0  0
   -2.8715    2.8857   -0.4068 C   0  0  0  0  0  0  0  0  0  0  0  0
    0.8660    0.5000    0.0000 O   0  0  0  0  0  0  0  0  0  0  0  0
    0.0000    0.0000    0.0000 C   0  0  0  0  0  0  0  0  0  0  0  0
    3.2654    0.3128    0.8717 H   0  0  0  0  0  0  0  0  0  0  0  0
    3.2155    0.3273   -0.9073 H   0  0  0  0  0  0  0  0  0  0  0  0
    2.5981   -0.5700    0.0000 H   0  0  0  0  0  0  0  0  0  0  0  0
    1.9142    2.2059    1.8032 H   0  0  0  0  0  0  0  0  0  0  0  0
    1.9968    3.4148    0.4909 H   0  0  0  0  0  0  0  0  0  0  0  0
    0.2540    2.3554   -0.7850 H   0  0  0  0  0  0  0  0  0  0  0  0
   -0.6724    3.4104    1.3387 H   0  0  0  0  0  0  0  0  0  0  0  0
   -0.3920    1.9027    2.2098 H   0  0  0  0  0  0  0  0  0  0  0  0
   -2.1252    2.9266   -1.2023 H   0  0  0  0  0  0  0  0  0  0  0  0
   -3.8102    2.5206   -0.8376 H   0  0  0  0  0  0  0  0  0  0  0  0
   -3.0513    3.8872   -0.0076 H   0  0  0  0  0  0  0  0  0  0  0  0
    0.0555   -0.4587   -1.0088 H   0  0  0  0  0  0  0  0  0  0  0  0
    0.2435   -0.7909    0.7391 H   0  0  0  0  0  0  0  0  0  0  0  0
   -0.9266   -0.5350    0.0000 H   0  0  0  0  0  0  0  0  0  0  0  0
  1  2  1  0  0  0  0
  1 10  1  0  0  0  0
  1 11  1  0  0  0  0
  1 12  1  0  0  0  0
  2  3  1  0  0  0  0
  3 13  1  0  0  0  0
  3 14  1  0  0  0  0
  4  3  1  0  0  0  0
  4  5  1  0  0  0  0
  4  8  1  0  0  0  0
  4 15  1  6  0  0  0
  5  6  1  0  0  0  0
  5 16  1  0  0  0  0
  5 17  1  0  0  0  0
  6  7  1  0  0  0  0
  7 18  1  0  0  0  0
  7 19  1  0  0  0  0
  7 20  1  0  0  0  0
  8  9  1  0  0  0  0
  9 21  1  0  0  0  0
  9 22  1  0  0  0  0
  9 23  1  0  0  0  0
M  END
$$$$
