
 OpenBabel03202621392D

 24 24  0  0  1  0  0  0  0  0999 V2000
   -0.8660   -1.5000    0.0000 C   0  0  0  0  0  0  0  0  0  0  0  0
   -0.8660   -0.5000    0.0000 C   0  0  2  0  0  0  0  0  0  0  0  0
   -2.2489   -0.0806   -0.8350 C   0  0  0  0  0  0  0  0  0  0  0  0
   -2.7404    1.1126   -0.2100 N   0  0  0  0  0  0  0  0  0  0  0  0
   -1.5216    1.8869   -0.2146 C   0  0  0  0  0  0  0  0  0  0  0  0
    0.0000    1.0000    0.0000 C   0  0  1  0  0  0  0  0  0  0  0  0
    0.8660    1.5000    0.0000 C   0  0  0  0  0  0  0  0  0  0  0  0
    0.0000    0.0000    0.0000 N   0  0  0  0  0  0  0  0  0  0  0  0
    1.3147   -0.8051    0.3837 C   0  0  0  0  0  0  0  0  0  0  0  0
    2.4563   -0.4002    0.5565 O   0  0  0  0  0  0  0  0  0  0  0  0
   -1.8437   -1.7998    0.4811 H   0  0  0  0  0  0  0  0  0  0  0  0
   -0.8448   -1.7463   -1.1029 H   0  0  0  0  0  0  0  0  0  0  0  0
   -0.8660   -2.5700    0.0000 H   0  0  0  0  0  0  0  0  0  0  0  0
   -1.2468   -0.2796    1.0496 H   0  0  0  0  0  0  0  0  0  0  0  0
   -3.0493   -0.8354   -0.7511 H   0  0  0  0  0  0  0  0  0  0  0  0
   -2.0390    0.0588   -1.9053 H   0  0  0  0  0  0  0  0  0  0  0  0
   -3.4767    1.5653   -0.7484 H   0  0  0  0  0  0  0  0  0  0  0  0
   -1.6330    2.6443    0.5884 H   0  0  0  0  0  0  0  0  0  0  0  0
   -1.4643    2.4081   -1.1868 H   0  0  0  0  0  0  0  0  0  0  0  0
    0.0000    2.0700    0.0000 H   0  0  0  0  0  0  0  0  0  0  0  0
    1.3980    1.1786   -0.9541 H   0  0  0  0  0  0  0  0  0  0  0  0
    1.2523    1.4010    1.0693 H   0  0  0  0  0  0  0  0  0  0  0  0
    1.7926    2.0350    0.0000 H   0  0  0  0  0  0  0  0  0  0  0  0
    1.1374   -1.8982    0.4540 H   0  0  0  0  0  0  0  0  0  0  0  0
  1 11  1  0  0  0  0
  1 12  1  0  0  0  0
  1 13  1  0  0  0  0
  2  1  1  0  0  0  0
  2  3  1  0  0  0  0
  2  8  1  0  0  0  0
  2 14  1  1  0  0  0
  3  4  1  0  0  0  0
  3 15  1  0  0  0  0
  3 16  1  0  0  0  0
  4  5  1  0  0  0  0
  4 17  1  0  0  0  0
  5  6  1  0  0  0  0
  5 18  1  0  0  0  0
  5 19  1  0  0  0  0
  6  7  1  0  0  0  0
  6  8  1  0  0  0  0
  6 20  1  6  0  0  0
  7 21  1  0  0  0  0
  7 22  1  0  0  0  0
  7 23  1  0  0  0  0
  8  9  1  0  0  0  0
  9 10  2  0  0  0  0
  9 24  1  0  0  0  0
M  END
$$$$
