
 OpenBabel03202621352D

 16 16  0  0  0  0  0  0  0  0999 V2000
    0.8090    1.5878    0.0000 C   0  0  0  0  0  0  0  0  0  0  0  0
    0.8090    0.5878    0.0000 C   0  0  0  0  0  0  0  0  0  0  0  0
    1.9122   -0.1905    0.0000 N   0  0  0  0  0  0  0  0  0  0  0  0
    1.4821   -1.4756   -0.0000 N   0  0  0  0  0  0  0  0  0  0  0  0
    2.4337   -2.4900    0.0000 C   0  0  0  0  0  0  0  0  0  0  0  0
    2.0749   -3.6645    0.0000 O   0  0  0  0  0  0  0  0  0  0  0  0
    0.1177   -1.5802    0.0000 C   0  0  0  0  0  0  0  0  0  0  0  0
   -0.3401   -0.2982    0.0000 C   0  0  0  0  0  0  0  0  0  0  0  0
   -1.6454    0.0364   -0.0000 N   0  0  0  0  0  0  0  0  0  0  0  0
    1.8542    1.9441   -0.0000 H   0  0  0  0  0  0  0  0  0  0  0  0
   -0.2194    1.9687   -0.0000 H   0  0  0  0  0  0  0  0  0  0  0  0
    0.8090    2.6578    0.0000 H   0  0  0  0  0  0  0  0  0  0  0  0
    3.4919   -2.1794    0.0000 H   0  0  0  0  0  0  0  0  0  0  0  0
   -0.3761   -2.5404    0.0000 H   0  0  0  0  0  0  0  0  0  0  0  0
   -1.9743    0.9989   -0.0000 H   0  0  0  0  0  0  0  0  0  0  0  0
   -2.3986   -0.6428   -0.0000 H   0  0  0  0  0  0  0  0  0  0  0  0
  1  2  1  0  0  0  0
  1 10  1  0  0  0  0
  1 11  1  0  0  0  0
  1 12  1  0  0  0  0
  2  8  1  0  0  0  0
  2  3  2  0  0  0  0
  3  4  1  0  0  0  0
  4  5  1  0  0  0  0
  4  7  1  0  0  0  0
  5  6  2  0  0  0  0
  5 13  1  0  0  0  0
  7  8  2  0  0  0  0
  7 14  1  0  0  0  0
  8  9  1  0  0  0  0
  9 15  1  0  0  0  0
  9 16  1  0  0  0  0
M  END
$$$$
