
 OpenBabel03202621302D

 24 24  0  0  0  0  0  0  0  0999 V2000
    3.4641    3.0000    0.0000 C   0  0  0  0  0  0  0  0  0  0  0  0
    2.5981    3.5000    0.0000 S   0  0  0  0  0  0  0  0  0  0  0  0
    0.9052    3.3914    0.0000 C   0  0  0  0  0  0  0  0  0  0  0  0
   -0.1288    4.6869   -0.0000 S   0  0  0  0  0  0  0  0  0  0  0  0
    0.6346    2.0715    0.0000 N   0  0  0  0  0  0  0  0  0  0  0  0
   -0.4693    1.2689    0.0000 C   0  0  0  0  0  0  0  0  0  0  0  0
   -1.6309    1.6372   -0.0000 O   0  0  0  0  0  0  0  0  0  0  0  0
   -0.0778   -0.1785   -0.0000 C   0  0  0  0  0  0  0  0  0  0  0  0
    1.2531   -0.6560   -0.0000 C   0  0  0  0  0  0  0  0  0  0  0  0
    1.5463   -2.0182   -0.0000 C   0  0  0  0  0  0  0  0  0  0  0  0
    0.4944   -2.9218    0.0000 C   0  0  0  0  0  0  0  0  0  0  0  0
   -0.8267   -2.4567   -0.0000 C   0  0  0  0  0  0  0  0  0  0  0  0
   -1.9341   -3.4108    0.0000 N   0  3  0  0  0  0  0  0  0  0  0  0
   -3.0872   -2.9597    0.0000 O   0  0  0  0  0  0  0  0  0  0  0  0
   -1.6477   -4.6173    0.0000 O   0  5  0  0  0  0  0  0  0  0  0  0
   -1.1251   -1.0918   -0.0000 C   0  0  0  0  0  0  0  0  0  0  0  0
    3.2744    1.9285   -0.0000 H   0  0  0  0  0  0  0  0  0  0  0  0
    4.2558    3.7541   -0.0000 H   0  0  0  0  0  0  0  0  0  0  0  0
    4.3907    2.4650    0.0000 H   0  0  0  0  0  0  0  0  0  0  0  0
    1.5011    1.5948    0.0000 H   0  0  0  0  0  0  0  0  0  0  0  0
    2.1399   -0.0252   -0.0000 H   0  0  0  0  0  0  0  0  0  0  0  0
    2.5817   -2.3489   -0.0000 H   0  0  0  0  0  0  0  0  0  0  0  0
    0.7240   -3.9858    0.0000 H   0  0  0  0  0  0  0  0  0  0  0  0
   -2.1498   -0.7279   -0.0000 H   0  0  0  0  0  0  0  0  0  0  0  0
  1  2  1  0  0  0  0
  1 17  1  0  0  0  0
  1 18  1  0  0  0  0
  1 19  1  0  0  0  0
  2  3  1  0  0  0  0
  3  4  2  0  0  0  0
  3  5  1  0  0  0  0
  5  6  1  0  0  0  0
  5 20  1  0  0  0  0
  6  7  2  0  0  0  0
  6  8  1  0  0  0  0
  8 16  2  0  0  0  0
  8  9  1  0  0  0  0
  9 10  2  0  0  0  0
  9 21  1  0  0  0  0
 10 11  1  0  0  0  0
 10 22  1  0  0  0  0
 11 12  2  0  0  0  0
 11 23  1  0  0  0  0
 12 13  1  0  0  0  0
 12 16  1  0  0  0  0
 13 14  2  0  0  0  0
 13 15  1  0  0  0  0
 16 24  1  0  0  0  0
M  CHG  2  13   1  15  -1
M  END
$$$$
