
 OpenBabel03202621362D

 23 23  0  0  1  0  0  0  0  0999 V2000
    2.5823    0.7045    0.0000 C   0  0  0  0  0  0  0  0  0  0  0  0
    1.5878    0.8090    0.0000 C   0  0  0  0  0  0  0  0  0  0  0  0
    0.6977   -0.4710    0.3163 C   0  0  2  0  0  0  0  0  0  0  0  0
    0.9972   -1.7140   -0.4221 N   0  0  0  0  0  0  0  0  0  0  0  0
   -0.1143   -2.6288   -0.1260 C   0  0  0  0  0  0  0  0  0  0  0  0
   -1.3294   -1.7337    0.0753 C   0  0  0  0  0  0  0  0  0  0  0  0
   -0.7875   -0.3118   -0.0903 C   0  0  1  0  0  0  0  0  0  0  0  0
   -1.4867    0.6429    0.7004 O   0  0  0  0  0  0  0  0  0  0  0  0
   -2.7520    0.9157    0.2907 C   0  0  0  0  0  0  0  0  0  0  0  0
   -3.4182    1.8410    0.7122 O   0  0  0  0  0  0  0  0  0  0  0  0
    2.7139    0.0770   -0.9144 H   0  0  0  0  0  0  0  0  0  0  0  0
    2.8777    1.7484   -0.2752 H   0  0  0  0  0  0  0  0  0  0  0  0
    3.6464    0.5927    0.0000 H   0  0  0  0  0  0  0  0  0  0  0  0
    1.1212    1.2211   -0.9185 H   0  0  0  0  0  0  0  0  0  0  0  0
    1.2136    1.5131    0.7653 H   0  0  0  0  0  0  0  0  0  0  0  0
    0.7675   -0.6658    1.3977 H   0  0  0  0  0  0  0  0  0  0  0  0
    1.8856   -2.1203   -0.1337 H   0  0  0  0  0  0  0  0  0  0  0  0
    0.0895   -3.1957    0.7901 H   0  0  0  0  0  0  0  0  0  0  0  0
   -0.2738   -3.3433   -0.9379 H   0  0  0  0  0  0  0  0  0  0  0  0
   -2.1123   -1.9468   -0.6607 H   0  0  0  0  0  0  0  0  0  0  0  0
   -1.7674   -1.8796    1.0709 H   0  0  0  0  0  0  0  0  0  0  0  0
   -0.8493   -0.0170   -1.1533 H   0  0  0  0  0  0  0  0  0  0  0  0
   -3.1306    0.1854   -0.4437 H   0  0  0  0  0  0  0  0  0  0  0  0
  1  2  1  0  0  0  0
  1 11  1  0  0  0  0
  1 12  1  0  0  0  0
  1 13  1  0  0  0  0
  2 14  1  0  0  0  0
  2 15  1  0  0  0  0
  3  2  1  0  0  0  0
  3  4  1  0  0  0  0
  3  7  1  0  0  0  0
  3 16  1  1  0  0  0
  4  5  1  0  0  0  0
  4 17  1  0  0  0  0
  5  6  1  0  0  0  0
  5 18  1  0  0  0  0
  5 19  1  0  0  0  0
  6  7  1  0  0  0  0
  6 20  1  0  0  0  0
  6 21  1  0  0  0  0
  7  8  1  0  0  0  0
  7 22  1  6  0  0  0
  8  9  1  0  0  0  0
  9 10  2  0  0  0  0
  9 23  1  0  0  0  0
M  END
$$$$
