
 OpenBabel03202621372D

 30 31  0  0  0  0  0  0  0  0999 V2000
    1.7321    0.0000    0.0000 C   0  0  0  0  0  0  0  0  0  0  0  0
    0.8660   -0.5000    0.0000 C   0  0  0  0  0  0  0  0  0  0  0  0
    0.6443   -1.8987    0.0267 C   0  0  0  0  0  0  0  0  0  0  0  0
   -0.6156   -2.4987    0.1356 C   0  0  0  0  0  0  0  0  0  0  0  0
   -1.7565   -1.7134    0.1907 C   0  0  0  0  0  0  0  0  0  0  0  0
   -1.6575   -0.3466    0.0381 C   0  0  0  0  0  0  0  0  0  0  0  0
   -2.7416    0.5484    0.0010 N   0  0  0  0  0  0  0  0  0  0  0  0
   -4.1030    0.3497   -0.0589 C   0  0  0  0  0  0  0  0  0  0  0  0
   -5.0516    1.7118   -0.1603 S   0  0  0  0  0  0  0  0  0  0  0  0
   -4.5275   -0.9361   -0.1105 O   0  0  0  0  0  0  0  0  0  0  0  0
   -5.5548   -1.9809   -0.1405 C   0  0  0  0  0  0  0  0  0  0  0  0
   -5.1130   -3.2271   -0.3995 C   0  0  0  0  0  0  0  0  0  0  0  0
   -5.8393   -4.3853   -0.4087 O   0  0  0  0  0  0  0  0  0  0  0  0
   -7.2227   -4.2542   -0.0594 C   0  0  0  0  0  0  0  0  0  0  0  0
   -7.7366   -2.8693    0.1616 C   0  0  0  0  0  0  0  0  0  0  0  0
   -6.9710   -1.7630    0.1483 C   0  0  0  0  0  0  0  0  0  0  0  0
   -7.3177   -0.5799    0.3554 O   0  5  0  0  0  0  0  0  0  0  0  0
   -0.3709    0.2120   -0.0674 C   0  0  0  0  0  0  0  0  0  0  0  0
    2.4674   -0.7801    0.3190 H   0  0  0  0  0  0  0  0  0  0  0  0
    1.6034    0.6186    0.9276 H   0  0  0  0  0  0  0  0  0  0  0  0
    2.6588    0.5350    0.0000 H   0  0  0  0  0  0  0  0  0  0  0  0
    1.4961   -2.5829    0.0015 H   0  0  0  0  0  0  0  0  0  0  0  0
   -0.7007   -3.5812    0.2045 H   0  0  0  0  0  0  0  0  0  0  0  0
   -2.6982   -2.2022    0.3711 H   0  0  0  0  0  0  0  0  0  0  0  0
   -2.5187    1.5342   -0.0391 H   0  0  0  0  0  0  0  0  0  0  0  0
   -4.0835   -3.4516   -0.6285 H   0  0  0  0  0  0  0  0  0  0  0  0
   -7.3847   -4.8410    0.8520 H   0  0  0  0  0  0  0  0  0  0  0  0
   -7.7960   -4.7305   -0.8608 H   0  0  0  0  0  0  0  0  0  0  0  0
   -8.7945   -2.7613    0.3596 H   0  0  0  0  0  0  0  0  0  0  0  0
   -0.3175    1.3026   -0.1646 H   0  0  0  0  0  0  0  0  0  0  0  0
  1  2  1  0  0  0  0
  1 19  1  0  0  0  0
  1 20  1  0  0  0  0
  1 21  1  0  0  0  0
  2 18  2  0  0  0  0
  2  3  1  0  0  0  0
  3  4  2  0  0  0  0
  3 22  1  0  0  0  0
  4  5  1  0  0  0  0
  4 23  1  0  0  0  0
  5  6  2  0  0  0  0
  5 24  1  0  0  0  0
  6  7  1  0  0  0  0
  6 18  1  0  0  0  0
  7  8  1  0  0  0  0
  7 25  1  0  0  0  0
  8  9  2  0  0  0  0
  8 10  1  0  0  0  0
 10 11  1  0  0  0  0
 11 16  1  0  0  0  0
 11 12  2  0  0  0  0
 12 13  1  0  0  0  0
 12 26  1  0  0  0  0
 13 14  1  0  0  0  0
 14 15  1  0  0  0  0
 14 27  1  0  0  0  0
 14 28  1  0  0  0  0
 15 16  2  0  0  0  0
 15 29  1  0  0  0  0
 16 17  1  0  0  0  0
 18 30  1  0  0  0  0
M  CHG  1  17  -1
M  END
$$$$
