
 OpenBabel03202621322D

 17 17  0  0  1  0  0  0  0  0999 V2000
    3.9103   -1.0020    0.6780 N   0  0  0  0  0  0  0  0  0  0  0  0
    3.0631   -0.3549    0.2172 C   0  0  0  0  0  0  0  0  0  0  0  0
    2.0111    0.5054   -0.3623 C   0  0  2  0  0  0  0  0  0  0  0  0
    1.7883    1.7130    0.4081 N   0  0  0  0  0  0  0  0  0  0  0  0
    0.9990    2.7297   -0.0433 C   0  0  0  0  0  0  0  0  0  0  0  0
    1.0573    3.8621    0.4105 O   0  0  0  0  0  0  0  0  0  0  0  0
    0.7602   -0.3388   -0.4998 C   0  0  0  0  0  0  0  0  0  0  0  0
    0.3553   -1.4738    0.4276 C   0  0  0  0  0  0  0  0  0  0  0  0
   -0.4184   -0.1934    0.4501 C   0  0  0  0  0  0  0  0  0  0  0  0
    2.3245    0.8256   -1.3638 H   0  0  0  0  0  0  0  0  0  0  0  0
    2.5044    2.0147    1.0598 H   0  0  0  0  0  0  0  0  0  0  0  0
    0.2875    2.4354   -0.8315 H   0  0  0  0  0  0  0  0  0  0  0  0
    0.5241   -0.4856   -1.5517 H   0  0  0  0  0  0  0  0  0  0  0  0
    0.9559   -1.7120    1.2986 H   0  0  0  0  0  0  0  0  0  0  0  0
   -0.1279   -2.3418   -0.0112 H   0  0  0  0  0  0  0  0  0  0  0  0
   -0.3279    0.4114    1.3467 H   0  0  0  0  0  0  0  0  0  0  0  0
   -1.4147   -0.1858    0.0212 H   0  0  0  0  0  0  0  0  0  0  0  0
  1  2  3  0  0  0  0
  3  2  1  0  0  0  0
  3  4  1  0  0  0  0
  3  7  1  0  0  0  0
  3 10  1  6  0  0  0
  4  5  1  0  0  0  0
  4 11  1  0  0  0  0
  5  6  2  0  0  0  0
  5 12  1  0  0  0  0
  7  9  1  0  0  0  0
  7  8  1  0  0  0  0
  7 13  1  0  0  0  0
  8  9  1  0  0  0  0
  8 14  1  0  0  0  0
  8 15  1  0  0  0  0
  9 16  1  0  0  0  0
  9 17  1  0  0  0  0
M  END
$$$$
