
 OpenBabel03202621282D

 15 15  0  0  1  0  0  0  0  0999 V2000
    2.5391    0.9483    0.0000 C   0  0  0  0  0  0  0  0  0  0  0  0
    2.7979   -0.0176    0.0000 C   0  0  0  0  0  0  0  0  0  0  0  0
    2.0908   -0.7247    0.0000 C   0  0  0  0  0  0  0  0  0  0  0  0
    1.1248   -0.4659    0.0000 C   0  0  0  0  0  0  0  0  0  0  0  0
    0.8660    0.5000    0.0000 C   0  0  3  0  0  0  0  0  0  0  0  0
    1.6594    1.1088    0.0000 O   0  0  0  0  0  0  0  0  0  0  0  0
    0.8660    1.5000    0.0000 C   0  0  0  0  0  0  0  0  0  0  0  0
    0.0000    2.0000    0.0000 C   0  0  0  0  0  0  0  0  0  0  0  0
   -0.8660    1.5000    0.0000 O   0  0  0  0  0  0  0  0  0  0  0  0
   -0.8660    0.5000    0.0000 C   0  0  0  0  0  0  0  0  0  0  0  0
    0.0000   -0.0000    0.0000 C   0  0  0  0  0  0  0  0  0  0  0  0
   -0.0000   -1.0000    0.0000 O   0  5  0  0  0  0  0  0  0  0  0  0
    3.7638   -0.2765    0.0000 N   0  3  0  0  0  0  0  0  0  0  0  0
    4.0226   -1.2424    0.0000 O   0  0  0  0  0  0  0  0  0  0  0  0
    4.4709    0.4306    0.0000 O   0  5  0  0  0  0  0  0  0  0  0  0
  1  2  1  0  0  0  0
  2  3  2  3  0  0  0
  2 13  1  0  0  0  0
  3  4  1  0  0  0  0
  4  5  1  0  0  0  0
  5 11  1  0  0  0  0
  5  6  1  0  0  0  0
  5  7  1  0  0  0  0
  7  8  1  0  0  0  0
  8  9  1  0  0  0  0
  9 10  1  0  0  0  0
 10 11  2  0  0  0  0
 11 12  1  0  0  0  0
 13 14  2  0  0  0  0
 13 15  1  0  0  0  0
M  CHG  3  12  -1  13   1  15  -1
M  END
$$$$
