
 OpenBabel03202621362D

 17 17  0  0  0  0  0  0  0  0999 V2000
    3.3054    2.3047   -0.2091 C   0  0  0  0  0  0  0  0  0  0  0  0
    1.9584    2.4930    0.9710 S   0  0  0  0  0  0  0  0  0  0  0  0
    0.6300    1.7622    0.0694 C   0  0  0  0  0  0  0  0  0  0  0  0
   -0.1864    2.4931   -0.4788 O   0  0  0  0  0  0  0  0  0  0  0  0
    0.6350    0.3909   -0.0115 N   0  0  0  0  0  0  0  0  0  0  0  0
    1.7509   -0.4961    0.1529 C   0  0  0  0  0  0  0  0  0  0  0  0
    1.1386   -1.8517   -0.0464 C   0  0  0  0  0  0  0  0  0  0  0  0
   -0.2378   -1.6710    0.2785 O   0  0  0  0  0  0  0  0  0  0  0  0
   -0.5261   -0.3272    0.1843 C   0  0  0  0  0  0  0  0  0  0  0  0
   -1.6673    0.0890    0.2927 O   0  0  0  0  0  0  0  0  0  0  0  0
    2.9452    2.1201   -1.2241 H   0  0  0  0  0  0  0  0  0  0  0  0
    3.9240    3.2051   -0.2115 H   0  0  0  0  0  0  0  0  0  0  0  0
    3.9358    1.4668    0.1042 H   0  0  0  0  0  0  0  0  0  0  0  0
    2.5288   -0.2912   -0.5863 H   0  0  0  0  0  0  0  0  0  0  0  0
    2.1658   -0.3886    1.1584 H   0  0  0  0  0  0  0  0  0  0  0  0
    1.5910   -2.6058    0.6040 H   0  0  0  0  0  0  0  0  0  0  0  0
    1.2067   -2.1912   -1.0855 H   0  0  0  0  0  0  0  0  0  0  0  0
  1  2  1  0  0  0  0
  1 11  1  0  0  0  0
  1 12  1  0  0  0  0
  1 13  1  0  0  0  0
  2  3  1  0  0  0  0
  3  4  2  0  0  0  0
  3  5  1  0  0  0  0
  5  9  1  0  0  0  0
  5  6  1  0  0  0  0
  6  7  1  0  0  0  0
  6 14  1  0  0  0  0
  6 15  1  0  0  0  0
  7  8  1  0  0  0  0
  7 16  1  0  0  0  0
  7 17  1  0  0  0  0
  8  9  1  0  0  0  0
  9 10  2  0  0  0  0
M  END
$$$$
