
 OpenBabel03202621392D

 34 36  0  0  1  0  0  0  0  0999 V2000
    6.9982   -1.4840   -0.0818 C   0  0  0  0  0  0  0  0  0  0  0  0
    5.7227   -0.7544   -0.0062 C   0  0  0  0  0  0  0  0  0  0  0  0
    4.4559   -1.2401    0.1818 C   0  0  0  0  0  0  0  0  0  0  0  0
    3.6995   -0.1139    0.2063 N   0  0  0  0  0  0  0  0  0  0  0  0
    2.2665   -0.0733    0.1970 C   0  0  0  0  0  0  0  0  0  0  0  0
    1.6408    1.1589    0.8813 C   0  0  1  0  0  0  0  0  0  0  0  0
    1.8456    2.4620    0.1940 O   0  0  0  0  0  0  0  0  0  0  0  0
    0.6263    2.7671   -0.5770 C   0  0  0  0  0  0  0  0  0  0  0  0
    0.0675    1.3813   -0.6940 C   0  0  1  0  0  0  0  0  0  0  0  0
   -1.1496    0.8936   -1.1151 O   0  0  0  0  0  0  0  0  0  0  0  0
   -1.6546    0.0002    0.0000 C   0  0  0  0  0  0  0  0  0  0  0  0
   -1.8155   -1.3871   -0.6814 C   0  0  0  0  0  0  0  0  0  0  0  0
   -2.5207    0.5002    0.0000 C   0  0  0  0  0  0  0  0  0  0  0  0
   -0.6054   -0.1242    0.9568 O   0  0  0  0  0  0  0  0  0  0  0  0
    0.1558    1.0472    0.7735 C   0  0  1  0  0  0  0  0  0  0  0  0
    4.4147    0.9833   -0.0438 N   0  0  0  0  0  0  0  0  0  0  0  0
    5.6883    0.6075   -0.1320 N   0  0  0  0  0  0  0  0  0  0  0  0
    6.8481   -2.4692   -0.5403 H   0  0  0  0  0  0  0  0  0  0  0  0
    7.7240   -0.9337   -0.6799 H   0  0  0  0  0  0  0  0  0  0  0  0
    7.3965   -1.6279    0.9237 H   0  0  0  0  0  0  0  0  0  0  0  0
    4.0436   -2.2355    0.2779 H   0  0  0  0  0  0  0  0  0  0  0  0
    1.9119   -0.9844    0.6926 H   0  0  0  0  0  0  0  0  0  0  0  0
    2.0368   -0.2031   -0.8681 H   0  0  0  0  0  0  0  0  0  0  0  0
    1.9946    1.2476    1.9119 H   0  0  0  0  0  0  0  0  0  0  0  0
    0.8755    3.2536   -1.5186 H   0  0  0  0  0  0  0  0  0  0  0  0
   -0.0139    3.4549    0.0052 H   0  0  0  0  0  0  0  0  0  0  0  0
    0.7336    0.8935   -1.4006 H   0  0  0  0  0  0  0  0  0  0  0  0
   -2.5192   -1.3462   -1.5258 H   0  0  0  0  0  0  0  0  0  0  0  0
   -0.8645   -1.7513   -1.0861 H   0  0  0  0  0  0  0  0  0  0  0  0
   -2.1897   -2.1348    0.0280 H   0  0  0  0  0  0  0  0  0  0  0  0
   -2.2678    1.4185    0.5984 H   0  0  0  0  0  0  0  0  0  0  0  0
   -3.0716   -0.1093    0.7629 H   0  0  0  0  0  0  0  0  0  0  0  0
   -3.4474    1.0352    0.0000 H   0  0  0  0  0  0  0  0  0  0  0  0
   -0.3081    1.8035    1.4218 H   0  0  0  0  0  0  0  0  0  0  0  0
  1  2  1  0  0  0  0
  1 18  1  0  0  0  0
  1 19  1  0  0  0  0
  1 20  1  0  0  0  0
  2 17  1  0  0  0  0
  2  3  2  0  0  0  0
  3  4  1  0  0  0  0
  3 21  1  0  0  0  0
  4  5  1  0  0  0  0
  4 16  1  0  0  0  0
  5 22  1  0  0  0  0
  5 23  1  0  0  0  0
  6  5  1  0  0  0  0
  6  7  1  0  0  0  0
  6 15  1  0  0  0  0
  6 24  1  1  0  0  0
  7  8  1  0  0  0  0
  8 25  1  0  0  0  0
  8 26  1  0  0  0  0
  9  8  1  0  0  0  0
  9 10  1  0  0  0  0
  9 15  1  0  0  0  0
  9 27  1  1  0  0  0
 10 11  1  0  0  0  0
 11 12  1  0  0  0  0
 11 13  1  0  0  0  0
 11 14  1  0  0  0  0
 12 28  1  0  0  0  0
 12 29  1  0  0  0  0
 12 30  1  0  0  0  0
 13 31  1  0  0  0  0
 13 32  1  0  0  0  0
 13 33  1  0  0  0  0
 15 14  1  0  0  0  0
 15 34  1  1  0  0  0
 16 17  2  0  0  0  0
M  END
$$$$
