
 OpenBabel03202621392D

 28 29  0  0  0  0  0  0  0  0999 V2000
    3.7254   -2.0875    0.0314 N   0  0  0  0  0  0  0  0  0  0  0  0
    2.7061   -1.5399   -0.0019 C   0  0  0  0  0  0  0  0  0  0  0  0
    1.4048   -0.9202   -0.0382 C   0  0  0  0  0  0  0  0  0  0  0  0
    0.2552   -1.6929   -0.0668 C   0  0  0  0  0  0  0  0  0  0  0  0
   -0.9892   -1.0520   -0.0833 C   0  0  0  0  0  0  0  0  0  0  0  0
   -1.0668    0.3396   -0.0715 C   0  0  0  0  0  0  0  0  0  0  0  0
   -2.2627    1.0904   -0.0097 N   0  0  0  0  0  0  0  0  0  0  0  0
   -3.5803    0.6836    0.0502 C   0  0  0  0  0  0  0  0  0  0  0  0
   -4.4348    1.4586    0.4606 O   0  0  0  0  0  0  0  0  0  0  0  0
   -3.7832   -0.6062   -0.3370 O   0  0  0  0  0  0  0  0  0  0  0  0
   -4.9896   -1.3099   -0.1067 C   0  0  0  0  0  0  0  0  0  0  0  0
   -4.9192   -2.5725    0.3321 C   0  0  0  0  0  0  0  0  0  0  0  0
   -5.9497   -3.4340    0.5732 O   0  0  0  0  0  0  0  0  0  0  0  0
   -7.1976   -3.0657   -0.0142 C   0  0  0  0  0  0  0  0  0  0  0  0
   -7.5163   -1.5868    0.0915 C   0  0  0  0  0  0  0  0  0  0  0  0
   -6.3435   -0.7627   -0.3847 C   0  0  0  0  0  0  0  0  0  0  0  0
   -6.5093    0.3035   -0.9698 O   0  0  0  0  0  0  0  0  0  0  0  0
    0.1520    1.0222   -0.0478 C   0  0  0  0  0  0  0  0  0  0  0  0
    1.3769    0.4322   -0.0318 N   0  0  0  0  0  0  0  0  0  0  0  0
    0.3070   -2.7791   -0.0627 H   0  0  0  0  0  0  0  0  0  0  0  0
   -1.8626   -1.6896   -0.0821 H   0  0  0  0  0  0  0  0  0  0  0  0
   -2.1783    2.0875    0.1523 H   0  0  0  0  0  0  0  0  0  0  0  0
   -3.9768   -3.0516    0.5684 H   0  0  0  0  0  0  0  0  0  0  0  0
   -7.1978   -3.3968   -1.0602 H   0  0  0  0  0  0  0  0  0  0  0  0
   -7.9729   -3.6439    0.5016 H   0  0  0  0  0  0  0  0  0  0  0  0
   -8.3889   -1.3653   -0.5326 H   0  0  0  0  0  0  0  0  0  0  0  0
   -7.7401   -1.3049    1.1250 H   0  0  0  0  0  0  0  0  0  0  0  0
    0.1915    2.1090   -0.0280 H   0  0  0  0  0  0  0  0  0  0  0  0
  1  2  3  0  0  0  0
  2  3  1  0  0  0  0
  3 19  2  0  0  0  0
  3  4  1  0  0  0  0
  4  5  2  0  0  0  0
  4 20  1  0  0  0  0
  5  6  1  0  0  0  0
  5 21  1  0  0  0  0
  6  7  1  0  0  0  0
  6 18  2  0  0  0  0
  7  8  1  0  0  0  0
  7 22  1  0  0  0  0
  8  9  2  0  0  0  0
  8 10  1  0  0  0  0
 10 11  1  0  0  0  0
 11 16  1  0  0  0  0
 11 12  2  0  0  0  0
 12 13  1  0  0  0  0
 12 23  1  0  0  0  0
 13 14  1  0  0  0  0
 14 15  1  0  0  0  0
 14 24  1  0  0  0  0
 14 25  1  0  0  0  0
 15 16  1  0  0  0  0
 15 26  1  0  0  0  0
 15 27  1  0  0  0  0
 16 17  2  0  0  0  0
 18 19  1  0  0  0  0
 18 28  1  0  0  0  0
M  END
$$$$
