
 OpenBabel03202621282D

 19 20  0  0  1  0  0  0  0  0999 V2000
    0.2788   -1.7601    0.0000 C   0  0  0  0  0  0  0  0  0  0  0  0
   -0.3090   -0.9511    0.0000 C   0  0  0  0  0  0  0  0  0  0  0  0
   -1.3090   -0.9511    0.0000 C   0  0  0  0  0  0  0  0  0  0  0  0
   -1.6180   -0.0000    0.0000 C   0  0  0  0  0  0  0  0  0  0  0  0
   -0.8090    0.5878    0.0000 C   0  0  0  0  0  0  0  0  0  0  0  0
   -0.8090    1.5878    0.0000 C   0  0  2  0  0  0  0  0  0  0  0  0
    0.0570    2.0878    0.0000 C   0  0  0  0  0  0  0  0  0  0  0  0
   -1.6750    2.0878    0.0000 N   0  0  0  0  0  0  0  0  0  0  0  0
   -2.5411    1.5878    0.0000 C   0  0  0  0  0  0  0  0  0  0  0  0
   -3.4071    2.0878    0.0000 O   0  0  0  0  0  0  0  0  0  0  0  0
   -2.5411    0.5878    0.0000 O   0  0  0  0  0  0  0  0  0  0  0  0
   -3.4071    0.0878    0.0000 C   0  0  0  0  0  0  0  0  0  0  0  0
   -3.4071   -0.9122    0.0000 C   0  0  0  0  0  0  0  0  0  0  0  0
   -4.2731   -1.4122    0.0000 O   0  0  0  0  0  0  0  0  0  0  0  0
   -5.1391   -0.9122    0.0000 C   0  0  0  0  0  0  0  0  0  0  0  0
   -5.1391    0.0878    0.0000 C   0  0  0  0  0  0  0  0  0  0  0  0
   -4.2731    0.5878    0.0000 C   0  0  0  0  0  0  0  0  0  0  0  0
   -4.2731    1.5878    0.0000 O   0  5  0  0  0  0  0  0  0  0  0  0
   -0.0000   -0.0000    0.0000 S   0  0  0  0  0  0  0  0  0  0  0  0
  1  2  1  0  0  0  0
  2 19  1  0  0  0  0
  2  3  2  0  0  0  0
  3  4  1  0  0  0  0
  4  5  2  0  0  0  0
  5  6  1  0  0  0  0
  5 19  1  0  0  0  0
  6  7  1  1  0  0  0
  6  8  1  0  0  0  0
  8  9  1  0  0  0  0
  9 10  2  0  0  0  0
  9 11  1  0  0  0  0
 11 12  1  0  0  0  0
 12 17  1  0  0  0  0
 12 13  2  0  0  0  0
 13 14  1  0  0  0  0
 14 15  1  0  0  0  0
 15 16  1  0  0  0  0
 16 17  2  0  0  0  0
 17 18  1  0  0  0  0
M  CHG  1  18  -1
M  END
$$$$
