
 OpenBabel03202621282D

 15 16  0  0  0  0  0  0  0  0999 V2000
   -0.6386   -1.6637    0.0000 C   0  0  0  0  0  0  0  0  0  0  0  0
   -0.7431   -0.6691    0.0000 C   0  0  0  0  0  0  0  0  0  0  0  0
   -1.6092   -0.1691    0.0000 C   0  0  0  0  0  0  0  0  0  0  0  0
   -1.4013    0.8090    0.0000 N   0  0  0  0  0  0  0  0  0  0  0  0
   -2.0704    1.5522    0.0000 C   0  0  0  0  0  0  0  0  0  0  0  0
   -3.0485    1.3443    0.0000 C   0  0  0  0  0  0  0  0  0  0  0  0
   -3.7177    2.0874    0.0000 O   0  0  0  0  0  0  0  0  0  0  0  0
   -3.3576    0.3932    0.0000 C   0  0  0  0  0  0  0  0  0  0  0  0
   -2.7698   -0.4158    0.0000 C   0  0  0  0  0  0  0  0  0  0  0  0
   -3.3576   -1.2248    0.0000 C   0  0  0  0  0  0  0  0  0  0  0  0
   -4.3086   -0.9158    0.0000 C   0  0  0  0  0  0  0  0  0  0  0  0
   -5.1176   -1.5036    0.0000 Cl  0  0  0  0  0  0  0  0  0  0  0  0
   -4.3086    0.0842    0.0000 S   0  0  0  0  0  0  0  0  0  0  0  0
   -0.4067    0.9135    0.0000 N   0  0  0  0  0  0  0  0  0  0  0  0
   -0.0000   -0.0000    0.0000 N   0  0  0  0  0  0  0  0  0  0  0  0
  1  2  1  0  0  0  0
  2 15  1  0  0  0  0
  2  3  2  0  0  0  0
  3  4  1  0  0  0  0
  4  5  1  0  0  0  0
  4 14  1  0  0  0  0
  5  6  1  0  0  0  0
  6  7  2  0  0  0  0
  6  8  1  0  0  0  0
  8 13  1  0  0  0  0
  8  9  2  0  0  0  0
  9 10  1  0  0  0  0
 10 11  2  0  0  0  0
 11 12  1  0  0  0  0
 11 13  1  0  0  0  0
 14 15  2  0  0  0  0
M  END
$$$$
