
 OpenBabel03202621402D

 68 70  0  0  1  0  0  0  0  0999 V2000
    1.7495   -5.8257    0.0000 C   0  0  0  0  0  0  0  0  0  0  0  0
    2.7276   -5.6178    0.0000 C   0  0  0  0  0  0  0  0  0  0  0  0
    3.6511   -6.3902   -0.2643 O   0  0  0  0  0  0  0  0  0  0  0  0
    3.0554   -4.1948    0.4529 C   0  0  0  0  0  0  0  0  0  0  0  0
    2.3635   -3.1514   -0.4061 C   0  0  0  0  0  0  0  0  0  0  0  0
    1.5488   -3.4359   -1.2970 O   0  0  0  0  0  0  0  0  0  0  0  0
    2.7331   -1.6978   -0.2261 C   0  0  2  0  0  0  0  0  0  0  0  0
    3.0078   -1.2922   -1.5590 O   0  0  0  0  0  0  0  0  0  0  0  0
    1.6955   -0.9093    0.5697 C   0  0  0  0  0  0  0  0  0  0  0  0
    1.0456   -1.5067    1.4384 O   0  0  0  0  0  0  0  0  0  0  0  0
    1.5244    0.6063    0.4184 C   0  0  2  0  0  0  0  0  0  0  0  0
    2.3865    1.3853   -0.6049 C   0  0  0  0  0  0  0  0  0  0  0  0
    3.1738    2.5594    0.0046 C   0  0  0  0  0  0  0  0  0  0  0  0
    3.9446    2.2070    1.1777 O   0  0  0  0  0  0  0  0  0  0  0  0
    4.7647    1.1353    1.2500 C   0  0  0  0  0  0  0  0  0  0  0  0
    5.0223    0.5341    2.7751 S   0  0  0  0  0  0  0  0  0  0  0  0
    5.2415    0.6489    0.0652 N   0  0  0  0  0  0  0  0  0  0  0  0
    5.8983   -0.6379   -0.1338 C   0  0  0  0  0  0  0  0  0  0  0  0
    7.3826   -0.5329   -0.0200 C   0  0  0  0  0  0  0  0  0  0  0  0
    8.1709   -1.7550   -0.0970 N   0  0  0  0  0  0  0  0  0  0  0  0
    9.5399   -1.6206    0.0000 C   0  0  0  0  0  0  0  0  0  0  0  0
   10.0399   -0.7546    0.0000 C   0  0  0  0  0  0  0  0  0  0  0  0
   10.0285   -2.9195    0.1333 C   0  0  0  0  0  0  0  0  0  0  0  0
    8.9829   -3.8379    0.0450 C   0  0  0  0  0  0  0  0  0  0  0  0
    8.9627   -5.2415    0.1066 C   0  0  0  0  0  0  0  0  0  0  0  0
    7.7650   -5.9032   -0.0909 C   0  0  0  0  0  0  0  0  0  0  0  0
    6.6257   -5.1690   -0.3828 C   0  0  0  0  0  0  0  0  0  0  0  0
    6.6252   -3.7655   -0.4355 C   0  0  0  0  0  0  0  0  0  0  0  0
    7.8206   -3.0919   -0.1806 C   0  0  0  0  0  0  0  0  0  0  0  0
    0.1077    1.1569    0.2930 C   0  0  0  0  0  0  0  0  0  0  0  0
   -0.0497    2.3819    0.4231 O   0  0  0  0  0  0  0  0  0  0  0  0
   -1.1246    0.3601   -0.0124 C   0  0  0  0  0  0  0  0  0  0  0  0
   -1.1144   -0.9431   -0.5253 C   0  0  0  0  0  0  0  0  0  0  0  0
   -2.3074   -1.6529   -0.7129 C   0  0  0  0  0  0  0  0  0  0  0  0
   -3.5325   -1.0486   -0.4530 C   0  0  0  0  0  0  0  0  0  0  0  0
   -3.5685    0.2706   -0.0164 C   0  0  0  0  0  0  0  0  0  0  0  0
   -2.3789    0.9654    0.1987 C   0  0  0  0  0  0  0  0  0  0  0  0
   -2.5347    2.2638    0.6141 O   0  0  0  0  0  0  0  0  0  0  0  0
    1.6812   -6.2030   -1.0488 H   0  0  0  0  0  0  0  0  0  0  0  0
    1.7798   -6.6507    0.7515 H   0  0  0  0  0  0  0  0  0  0  0  0
    0.7029   -6.0482    0.0000 H   0  0  0  0  0  0  0  0  0  0  0  0
    4.1278   -4.0439    0.4318 H   0  0  0  0  0  0  0  0  0  0  0  0
    2.7230   -4.0643    1.4907 H   0  0  0  0  0  0  0  0  0  0  0  0
    3.6448   -1.6627    0.3571 H   0  0  0  0  0  0  0  0  0  0  0  0
    2.3153   -1.6894   -2.1351 H   0  0  0  0  0  0  0  0  0  0  0  0
    1.8299    0.9422    1.4210 H   0  0  0  0  0  0  0  0  0  0  0  0
    3.1104    0.7609   -1.1073 H   0  0  0  0  0  0  0  0  0  0  0  0
    1.7636    1.7838   -1.4168 H   0  0  0  0  0  0  0  0  0  0  0  0
    2.4766    3.3423    0.3211 H   0  0  0  0  0  0  0  0  0  0  0  0
    3.8433    3.0133   -0.7341 H   0  0  0  0  0  0  0  0  0  0  0  0
    5.1595    1.2398   -0.7518 H   0  0  0  0  0  0  0  0  0  0  0  0
    5.6161   -0.9860   -1.1318 H   0  0  0  0  0  0  0  0  0  0  0  0
    5.5453   -1.3448    0.6165 H   0  0  0  0  0  0  0  0  0  0  0  0
    7.6353   -0.0769    0.9476 H   0  0  0  0  0  0  0  0  0  0  0  0
    7.7525    0.1436   -0.8025 H   0  0  0  0  0  0  0  0  0  0  0  0
   10.7475   -0.9279   -0.8467 H   0  0  0  0  0  0  0  0  0  0  0  0
   10.5540   -0.8153    0.9901 H   0  0  0  0  0  0  0  0  0  0  0  0
   10.5749    0.1720    0.0000 H   0  0  0  0  0  0  0  0  0  0  0  0
   11.0763   -3.1728    0.2617 H   0  0  0  0  0  0  0  0  0  0  0  0
    9.8769   -5.7996    0.2897 H   0  0  0  0  0  0  0  0  0  0  0  0
    7.7240   -6.9886   -0.0492 H   0  0  0  0  0  0  0  0  0  0  0  0
    5.7159   -5.7167   -0.5864 H   0  0  0  0  0  0  0  0  0  0  0  0
    5.7197   -3.2431   -0.6998 H   0  0  0  0  0  0  0  0  0  0  0  0
   -0.2079   -1.4656   -0.7942 H   0  0  0  0  0  0  0  0  0  0  0  0
   -2.2748   -2.6831   -1.0628 H   0  0  0  0  0  0  0  0  0  0  0  0
   -4.4580   -1.5981   -0.6012 H   0  0  0  0  0  0  0  0  0  0  0  0
   -4.5205    0.7639    0.1614 H   0  0  0  0  0  0  0  0  0  0  0  0
   -1.6448    2.6827    0.6375 H   0  0  0  0  0  0  0  0  0  0  0  0
  1  2  1  0  0  0  0
  1 39  1  0  0  0  0
  1 40  1  0  0  0  0
  1 41  1  0  0  0  0
  2  3  2  0  0  0  0
  2  4  1  0  0  0  0
  4  5  1  0  0  0  0
  4 42  1  0  0  0  0
  4 43  1  0  0  0  0
  5  6  2  0  0  0  0
  5  7  1  0  0  0  0
  7  8  1  0  0  0  0
  7  9  1  0  0  0  0
  7 44  1  6  0  0  0
  8 45  1  0  0  0  0
  9 10  2  0  0  0  0
  9 11  1  0  0  0  0
 11 12  1  0  0  0  0
 11 30  1  0  0  0  0
 11 46  1  6  0  0  0
 12 13  1  0  0  0  0
 12 47  1  0  0  0  0
 12 48  1  0  0  0  0
 13 14  1  0  0  0  0
 13 49  1  0  0  0  0
 13 50  1  0  0  0  0
 14 15  1  0  0  0  0
 15 16  2  0  0  0  0
 15 17  1  0  0  0  0
 17 18  1  0  0  0  0
 17 51  1  0  0  0  0
 18 19  1  0  0  0  0
 18 52  1  0  0  0  0
 18 53  1  0  0  0  0
 19 20  1  0  0  0  0
 19 54  1  0  0  0  0
 19 55  1  0  0  0  0
 20 29  1  0  0  0  0
 20 21  1  0  0  0  0
 21 22  1  0  0  0  0
 21 23  2  0  0  0  0
 22 56  1  0  0  0  0
 22 57  1  0  0  0  0
 22 58  1  0  0  0  0
 23 24  1  0  0  0  0
 23 59  1  0  0  0  0
 24 29  2  0  0  0  0
 24 25  1  0  0  0  0
 25 26  2  0  0  0  0
 25 60  1  0  0  0  0
 26 27  1  0  0  0  0
 26 61  1  0  0  0  0
 27 28  2  0  0  0  0
 27 62  1  0  0  0  0
 28 29  1  0  0  0  0
 28 63  1  0  0  0  0
 30 31  2  0  0  0  0
 30 32  1  0  0  0  0
 32 37  2  0  0  0  0
 32 33  1  0  0  0  0
 33 34  2  0  0  0  0
 33 64  1  0  0  0  0
 34 35  1  0  0  0  0
 34 65  1  0  0  0  0
 35 36  2  0  0  0  0
 35 66  1  0  0  0  0
 36 37  1  0  0  0  0
 36 67  1  0  0  0  0
 37 38  1  0  0  0  0
 38 68  1  0  0  0  0
M  END
$$$$
