
 OpenBabel03202621282D

 10 10  0  0  1  0  0  0  0  0999 V2000
    0.1019    1.2949    0.0000 N   0  0  0  0  0  0  0  0  0  0  0  0
    0.8090    0.5878    0.0000 C   0  0  2  0  0  0  0  0  0  0  0  0
    1.6427    1.1401    0.0000 C   0  0  0  0  0  0  0  0  0  0  0  0
    1.5812    2.1382    0.0000 O   0  0  0  0  0  0  0  0  0  0  0  0
    2.4148    2.6905    0.0000 C   0  0  0  0  0  0  0  0  0  0  0  0
    2.3534    3.6886    0.0000 O   0  0  0  0  0  0  0  0  0  0  0  0
    1.6180    0.0000    0.0000 C   0  0  0  0  0  0  0  0  0  0  0  0
    1.3090   -0.9511    0.0000 C   0  0  0  0  0  0  0  0  0  0  0  0
    0.3090   -0.9511    0.0000 O   0  0  0  0  0  0  0  0  0  0  0  0
    0.0000   -0.0000    0.0000 C   0  0  0  0  0  0  0  0  0  0  0  0
  2  1  1  6  0  0  0
  2 10  1  0  0  0  0
  2  3  1  0  0  0  0
  2  7  1  0  0  0  0
  3  4  1  0  0  0  0
  4  5  1  0  0  0  0
  5  6  2  0  0  0  0
  7  8  1  0  0  0  0
  8  9  1  0  0  0  0
  9 10  1  0  0  0  0
M  END
$$$$
