
 OpenBabel03202621282D

 37 40  0  0  1  0  0  0  0  0999 V2000
   -2.1981   -3.1939    0.0000 C   0  0  0  0  0  0  0  0  0  0  0  0
   -2.5071   -2.2429    0.0000 C   0  0  0  0  0  0  0  0  0  0  0  0
   -3.4853   -2.0349    0.0000 O   0  0  0  0  0  0  0  0  0  0  0  0
   -1.8380   -1.4997    0.0000 C   0  0  0  0  0  0  0  0  0  0  0  0
   -2.1470   -0.5487    0.0000 C   0  0  0  0  0  0  0  0  0  0  0  0
   -3.1251   -0.3407    0.0000 O   0  0  0  0  0  0  0  0  0  0  0  0
   -1.4779    0.1945    0.0000 C   0  0  1  0  0  0  0  0  0  0  0  0
   -1.7869    1.1455    0.0000 C   0  0  0  0  0  0  0  0  0  0  0  0
   -2.7650    1.3535    0.0000 O   0  0  0  0  0  0  0  0  0  0  0  0
   -1.1178    1.8887    0.0000 C   0  0  2  0  0  0  0  0  0  0  0  0
   -1.4268    2.8397    0.0000 C   0  0  0  0  0  0  0  0  0  0  0  0
   -2.4049    3.0477    0.0000 C   0  0  0  0  0  0  0  0  0  0  0  0
   -3.0741    2.3045    0.0000 O   0  0  0  0  0  0  0  0  0  0  0  0
   -0.1396    1.6808    0.0000 C   0  0  0  0  0  0  0  0  0  0  0  0
    0.5295    2.4239    0.0000 O   0  0  0  0  0  0  0  0  0  0  0  0
    0.1694    0.7297    0.0000 C   0  0  0  0  0  0  0  0  0  0  0  0
   -0.4997   -0.0134    0.0000 C   0  0  0  0  0  0  0  0  0  0  0  0
   -0.1907   -0.9645    0.0000 C   0  0  0  0  0  0  0  0  0  0  0  0
    0.7874   -1.1724    0.0000 C   0  0  0  0  0  0  0  0  0  0  0  0
    1.4566   -0.4292    0.0000 C   0  0  0  0  0  0  0  0  0  0  0  0
    1.1476    0.5218    0.0000 C   0  0  0  0  0  0  0  0  0  0  0  0
    1.8167    1.2650    0.0000 O   0  5  0  0  0  0  0  0  0  0  0  0
   -0.4997   -0.0134    0.0000 N   0  0  0  0  0  0  0  0  0  0  0  0
   -0.0930   -0.9270    0.0000 C   0  0  0  0  0  0  0  0  0  0  0  0
   -0.5930   -1.7930    0.0000 O   0  0  0  0  0  0  0  0  0  0  0  0
    0.9015   -0.8224    0.0000 C   0  0  2  0  0  0  0  0  0  0  0  0
    1.1094    0.1557    0.0000 C   0  0  1  0  0  0  0  0  0  0  0  0
    0.2434    0.6557    0.0000 C   0  0  0  0  0  0  0  0  0  0  0  0
    0.1389    1.6502    0.0000 O   0  0  0  0  0  0  0  0  0  0  0  0
    2.1040    0.2602    0.0000 C   0  0  1  0  0  0  0  0  0  0  0  0
    2.7052   -0.2811    0.0000 C   0  0  0  0  0  0  0  0  0  0  0  0
    2.5370   -1.0724    0.0000 C   0  0  0  0  0  0  0  0  0  0  0  0
    1.7676   -1.3224    0.0000 C   0  0  1  0  0  0  0  0  0  0  0  0
    2.5107   -0.6533    0.0000 C   0  0  0  0  0  0  0  0  0  0  0  0
    0.8536   -0.4928    0.0000 C   0  0  0  0  0  0  0  0  0  0  0  0
    1.7072    0.0000    0.0000 C   0  0  0  0  0  0  0  0  0  0  0  0
    0.0000    0.0000    0.0000 C   0  0  0  0  0  0  0  0  0  0  0  0
  1  2  1  0  0  0  0
  2  3  2  0  0  0  0
  2  4  1  0  0  0  0
  4  5  1  0  0  0  0
  5  6  2  0  0  0  0
  7  5  1  1  0  0  0
  7  8  1  0  0  0  0
  7 23  1  0  0  0  0
  8  9  2  0  0  0  0
  8 10  1  0  0  0  0
 10 11  1  6  0  0  0
 10 14  1  0  0  0  0
 11 12  1  0  0  0  0
 12 13  1  0  0  0  0
 14 15  2  0  0  0  0
 14 16  1  0  0  0  0
 16 21  2  0  0  0  0
 16 17  1  0  0  0  0
 17 18  2  0  0  0  0
 18 19  1  0  0  0  0
 19 20  2  0  0  0  0
 20 21  1  0  0  0  0
 21 22  1  0  0  0  0
 23 28  1  0  0  0  0
 23 24  1  0  0  0  0
 24 25  2  0  0  0  0
 26 24  1  6  0  0  0
 26 27  1  0  0  0  0
 26 33  1  0  0  0  0
 27 28  1  1  0  0  0
 27 30  1  0  0  0  0
 28 29  2  0  0  0  0
 30 31  1  1  0  0  0
 30 34  1  0  0  0  0
 31 32  2  0  0  0  0
 33 32  1  6  0  0  0
 33 34  1  0  0  0  0
 34 35  2  0  0  0  0
 35 36  1  0  0  0  0
 35 37  1  0  0  0  0
M  CHG  1  22  -1
M  END
$$$$
