
 OpenBabel03202621342D

 29 30  0  0  1  0  0  0  0  0999 V2000
    2.9012    2.9932   -0.5362 O   0  0  0  0  0  0  0  0  0  0  0  0
    3.2853    1.8286   -0.5081 C   0  0  0  0  0  0  0  0  0  0  0  0
    4.6791    1.4682   -0.0512 C   0  0  0  0  0  0  0  0  0  0  0  0
    5.1047    0.1054   -0.5561 C   0  0  0  0  0  0  0  0  0  0  0  0
    4.1168   -0.9100   -0.4001 O   0  0  0  0  0  0  0  0  0  0  0  0
    2.8585   -0.5305   -0.7770 C   0  0  0  0  0  0  0  0  0  0  0  0
    2.3665    0.7156   -0.8480 C   0  0  0  0  0  0  0  0  0  0  0  0
    1.0355    0.9769   -1.2181 O   0  0  0  0  0  0  0  0  0  0  0  0
    0.0000    1.0000    0.0000 C   0  0  1  0  0  0  0  0  0  0  0  0
   -1.4949    1.3657   -0.6537 C   0  0  0  0  0  0  0  0  0  0  0  0
   -2.6152    0.4136   -0.2432 C   0  0  0  0  0  0  0  0  0  0  0  0
   -2.1936   -1.0040   -0.5763 C   0  0  0  0  0  0  0  0  0  0  0  0
   -0.7082   -1.0108   -0.9217 C   0  0  0  0  0  0  0  0  0  0  0  0
    0.0000    0.0000    0.0000 C   0  0  0  0  0  0  0  0  0  0  0  0
    0.4986   -0.5572    1.0094 O   0  0  0  0  0  0  0  0  0  0  0  0
    5.3848    2.2193   -0.4228 H   0  0  0  0  0  0  0  0  0  0  0  0
    4.6820    1.4920    1.0471 H   0  0  0  0  0  0  0  0  0  0  0  0
    5.9931   -0.2267   -0.0080 H   0  0  0  0  0  0  0  0  0  0  0  0
    5.3807    0.1421   -1.6170 H   0  0  0  0  0  0  0  0  0  0  0  0
    2.2548   -1.4123   -0.9416 H   0  0  0  0  0  0  0  0  0  0  0  0
    0.0000    2.0700    0.0000 H   0  0  0  0  0  0  0  0  0  0  0  0
   -1.8126    2.3650   -0.3101 H   0  0  0  0  0  0  0  0  0  0  0  0
   -1.4181    1.4379   -1.7496 H   0  0  0  0  0  0  0  0  0  0  0  0
   -3.5509    0.6778   -0.7483 H   0  0  0  0  0  0  0  0  0  0  0  0
   -2.7973    0.5115    0.8346 H   0  0  0  0  0  0  0  0  0  0  0  0
   -2.3955   -1.6521    0.2847 H   0  0  0  0  0  0  0  0  0  0  0  0
   -2.7784   -1.3966   -1.4152 H   0  0  0  0  0  0  0  0  0  0  0  0
   -0.5463   -0.7610   -1.9768 H   0  0  0  0  0  0  0  0  0  0  0  0
   -0.2900   -2.0124   -0.7728 H   0  0  0  0  0  0  0  0  0  0  0  0
  1  2  2  0  0  0  0
  2  7  1  0  0  0  0
  2  3  1  0  0  0  0
  3  4  1  0  0  0  0
  3 16  1  0  0  0  0
  3 17  1  0  0  0  0
  4  5  1  0  0  0  0
  4 18  1  0  0  0  0
  4 19  1  0  0  0  0
  5  6  1  0  0  0  0
  6  7  2  0  0  0  0
  6 20  1  0  0  0  0
  7  8  1  0  0  0  0
  9  8  1  0  0  0  0
  9 10  1  0  0  0  0
  9 14  1  0  0  0  0
  9 21  1  1  0  0  0
 10 11  1  0  0  0  0
 10 22  1  0  0  0  0
 10 23  1  0  0  0  0
 11 12  1  0  0  0  0
 11 24  1  0  0  0  0
 11 25  1  0  0  0  0
 12 13  1  0  0  0  0
 12 26  1  0  0  0  0
 12 27  1  0  0  0  0
 13 14  1  0  0  0  0
 13 28  1  0  0  0  0
 13 29  1  0  0  0  0
 14 15  2  0  0  0  0
M  END
$$$$
