
 OpenBabel03202621282D

 11 13  0  0  1  0  0  0  0  0999 V2000
    4.0814    1.4138    0.0000 O   0  0  0  0  0  0  0  0  0  0  0  0
    3.2652    0.9425    0.0000 C   0  0  0  0  0  0  0  0  0  0  0  0
    2.4490    1.4138    0.0000 O   0  0  0  0  0  0  0  0  0  0  0  0
    1.6327    0.9425    0.0000 C   0  0  2  0  0  0  0  0  0  0  0  0
    1.6327    0.0000    0.0000 C   0  0  0  0  0  0  0  0  0  0  0  0
    0.8164   -0.4713    0.0000 C   0  0  1  0  0  0  0  0  0  0  0  0
    0.4025    0.4713    0.0000 C   0  0  0  0  0  0  0  0  0  0  0  0
    0.8164    1.4138    0.0000 C   0  0  1  0  0  0  0  0  0  0  0  0
   -0.0000    0.9425    0.0000 C   0  0  2  0  0  0  0  0  0  0  0  0
   -0.8162    0.4712    0.0000 C   0  0  0  0  0  0  0  0  0  0  0  0
    0.0000    0.0000    0.0000 C   0  0  1  0  0  0  0  0  0  0  0  0
  1  2  2  0  0  0  0
  2  3  1  0  0  0  0
  4  3  1  6  0  0  0
  4  5  1  0  0  0  0
  4  8  1  0  0  0  0
  6  5  1  6  0  0  0
  6  7  1  0  0  0  0
  6 11  1  0  0  0  0
  8  7  1  6  0  0  0
  8  9  1  0  0  0  0
  9 10  1  1  0  0  0
  9 11  1  0  0  0  0
 11 10  1  6  0  0  0
M  END
$$$$
