
 OpenBabel03202621282D

 15 16  0  0  1  0  0  0  0  0999 V2000
   -0.2788   -1.7601    0.0000 C   0  0  0  0  0  0  0  0  0  0  0  0
   -0.5878   -0.8090    0.0000 C   0  0  0  0  0  0  0  0  0  0  0  0
   -1.5388   -0.5000    0.0000 C   0  0  0  0  0  0  0  0  0  0  0  0
   -1.5388    0.5000    0.0000 N   0  0  0  0  0  0  0  0  0  0  0  0
   -2.3479    1.0878    0.0000 C   0  0  0  0  0  0  0  0  0  0  0  0
   -3.2614    0.6810    0.0000 C   0  0  2  0  0  0  0  0  0  0  0  0
   -3.4693   -0.2971    0.0000 C   0  0  0  0  0  0  0  0  0  0  0  0
   -4.4638   -0.4016    0.0000 C   0  0  0  0  0  0  0  0  0  0  0  0
   -5.3299   -0.9016    0.0000 F   0  0  0  0  0  0  0  0  0  0  0  0
   -4.4638   -1.4016    0.0000 F   0  0  0  0  0  0  0  0  0  0  0  0
   -4.8706    0.5119    0.0000 C   0  0  0  0  0  0  0  0  0  0  0  0
   -5.8487    0.7198    0.0000 O   0  0  0  0  0  0  0  0  0  0  0  0
   -4.1274    1.1810    0.0000 O   0  0  0  0  0  0  0  0  0  0  0  0
   -0.5878    0.8090    0.0000 N   0  0  0  0  0  0  0  0  0  0  0  0
   -0.0000   -0.0000    0.0000 N   0  0  0  0  0  0  0  0  0  0  0  0
  1  2  1  0  0  0  0
  2 15  1  0  0  0  0
  2  3  2  0  0  0  0
  3  4  1  0  0  0  0
  4  5  1  0  0  0  0
  4 14  1  0  0  0  0
  6  5  1  6  0  0  0
  6  7  1  0  0  0  0
  6 13  1  0  0  0  0
  7  8  1  0  0  0  0
  8  9  1  0  0  0  0
  8 10  1  0  0  0  0
  8 11  1  0  0  0  0
 11 12  2  0  0  0  0
 11 13  1  0  0  0  0
 14 15  2  0  0  0  0
M  END
$$$$
