
 OpenBabel03202621362D

 28 27  0  0  1  0  0  0  0  0999 V2000
    5.1962    0.0000    0.0000 C   0  0  0  0  0  0  0  0  0  0  0  0
    5.1962    1.0000    0.0000 C   0  0  0  0  0  0  0  0  0  0  0  0
    4.4884    1.9718   -0.9878 C   0  0  0  0  0  0  0  0  0  0  0  0
    3.0257    1.7424   -1.3344 C   0  0  0  0  0  0  0  0  0  0  0  0
    2.0112    2.4496   -0.4304 C   0  0  0  0  0  0  0  0  0  0  0  0
    1.8673    1.9669    1.0199 C   0  0  1  0  0  0  0  0  0  0  0  0
    0.6703    2.5191    1.5674 O   0  0  0  0  0  0  0  0  0  0  0  0
    1.8224    0.4436    1.2428 C   0  0  0  0  0  0  0  0  0  0  0  0
    0.8660   -0.5000    0.0000 S   0  0  0  0  0  0  0  0  0  0  0  0
    0.0000    0.0000    0.0000 C   0  0  0  0  0  0  0  0  0  0  0  0
    5.5742   -0.1826   -1.0339 H   0  0  0  0  0  0  0  0  0  0  0  0
    6.0203   -0.2049    0.7304 H   0  0  0  0  0  0  0  0  0  0  0  0
    5.1962   -1.0700    0.0000 H   0  0  0  0  0  0  0  0  0  0  0  0
    6.2080    1.4654   -0.0118 H   0  0  0  0  0  0  0  0  0  0  0  0
    4.8201    1.3826    0.9649 H   0  0  0  0  0  0  0  0  0  0  0  0
    5.0622    1.9703   -1.9256 H   0  0  0  0  0  0  0  0  0  0  0  0
    4.5998    2.9891   -0.5877 H   0  0  0  0  0  0  0  0  0  0  0  0
    2.8373    0.6749   -1.4467 H   0  0  0  0  0  0  0  0  0  0  0  0
    2.8761    2.1656   -2.3347 H   0  0  0  0  0  0  0  0  0  0  0  0
    2.2351    3.5274   -0.4093 H   0  0  0  0  0  0  0  0  0  0  0  0
    1.0296    2.4056   -0.9235 H   0  0  0  0  0  0  0  0  0  0  0  0
    2.6856    2.3802    1.6241 H   0  0  0  0  0  0  0  0  0  0  0  0
    0.6117    3.4571    1.3112 H   0  0  0  0  0  0  0  0  0  0  0  0
    2.8358    0.0289    1.2277 H   0  0  0  0  0  0  0  0  0  0  0  0
    1.4128    0.2189    2.2360 H   0  0  0  0  0  0  0  0  0  0  0  0
   -0.0942    0.1810   -1.0881 H   0  0  0  0  0  0  0  0  0  0  0  0
   -0.6802   -0.8336    0.2609 H   0  0  0  0  0  0  0  0  0  0  0  0
   -0.9266    0.5350    0.0000 H   0  0  0  0  0  0  0  0  0  0  0  0
  1  2  1  0  0  0  0
  1 11  1  0  0  0  0
  1 12  1  0  0  0  0
  1 13  1  0  0  0  0
  2  3  1  0  0  0  0
  2 14  1  0  0  0  0
  2 15  1  0  0  0  0
  3  4  1  0  0  0  0
  3 16  1  0  0  0  0
  3 17  1  0  0  0  0
  4  5  1  0  0  0  0
  4 18  1  0  0  0  0
  4 19  1  0  0  0  0
  5  6  1  0  0  0  0
  5 20  1  0  0  0  0
  5 21  1  0  0  0  0
  6  7  1  0  0  0  0
  6  8  1  0  0  0  0
  6 22  1  1  0  0  0
  7 23  1  0  0  0  0
  8  9  1  0  0  0  0
  8 24  1  0  0  0  0
  8 25  1  0  0  0  0
  9 10  1  0  0  0  0
 10 26  1  0  0  0  0
 10 27  1  0  0  0  0
 10 28  1  0  0  0  0
M  END
$$$$
