
 OpenBabel03202621392D

 65 67  0  0  1  0  0  0  0  0999 V2000
    3.4641   -5.0000    0.0000 C   0  0  0  0  0  0  0  0  0  0  0  0
    4.3301   -4.5000    0.0000 C   0  0  0  0  0  0  0  0  0  0  0  0
    5.3736   -5.0798    0.3757 O   0  0  0  0  0  0  0  0  0  0  0  0
    4.5509   -3.0495   -0.2524 C   0  0  0  0  0  0  0  0  0  0  0  0
    4.0233   -2.2548    0.8958 C   0  0  0  0  0  0  0  0  0  0  0  0
    3.6444   -2.7398    1.9625 O   0  0  0  0  0  0  0  0  0  0  0  0
    4.0259   -0.7803    0.6984 C   0  0  2  0  0  0  0  0  0  0  0  0
    4.3372   -0.1768    1.9459 O   0  0  0  0  0  0  0  0  0  0  0  0
    2.7186   -0.3540    0.0188 C   0  0  0  0  0  0  0  0  0  0  0  0
    2.3200   -0.9328   -0.9937 O   0  0  0  0  0  0  0  0  0  0  0  0
    2.0042    0.8317    0.6271 C   0  0  2  0  0  0  0  0  0  0  0  0
    3.0559    1.9697    0.5637 C   0  0  0  0  0  0  0  0  0  0  0  0
    2.8986    3.2556   -0.2364 C   0  0  0  0  0  0  0  0  0  0  0  0
    4.2180    3.9086   -0.3244 O   0  0  0  0  0  0  0  0  0  0  0  0
    5.2610    3.1876   -0.8429 C   0  0  0  0  0  0  0  0  0  0  0  0
    5.1556    2.5476   -2.3838 S   0  0  0  0  0  0  0  0  0  0  0  0
    6.3064    3.0954    0.0569 N   0  0  0  0  0  0  0  0  0  0  0  0
    7.3641    2.2198   -0.1184 C   0  0  0  0  0  0  0  0  0  0  0  0
    8.6744    2.4484   -0.5884 C   0  0  0  0  0  0  0  0  0  0  0  0
    9.3804    1.3139   -0.6880 N   0  0  0  0  0  0  0  0  0  0  0  0
    8.5763    0.3744   -0.1408 N   0  0  0  0  0  0  0  0  0  0  0  0
    8.9264   -1.0572   -0.1029 C   0  0  0  0  0  0  0  0  0  0  0  0
   10.3793   -1.4689    0.0272 C   0  0  0  0  0  0  0  0  0  0  0  0
   11.4230   -0.5979    0.3624 C   0  0  0  0  0  0  0  0  0  0  0  0
   12.7488   -1.0383    0.4038 C   0  0  0  0  0  0  0  0  0  0  0  0
   13.0512   -2.3725    0.1544 C   0  0  0  0  0  0  0  0  0  0  0  0
   12.0258   -3.2720   -0.1187 C   0  0  0  0  0  0  0  0  0  0  0  0
   10.7020   -2.8254   -0.1806 C   0  0  0  0  0  0  0  0  0  0  0  0
    7.3544    0.8905    0.2261 C   0  0  0  0  0  0  0  0  0  0  0  0
    0.6068    1.1094    0.0953 C   0  0  0  0  0  0  0  0  0  0  0  0
    0.2851    2.2388   -0.2666 O   0  0  0  0  0  0  0  0  0  0  0  0
   -0.4881    0.0474    0.1206 C   0  0  0  0  0  0  0  0  0  0  0  0
   -0.2728   -1.3150    0.3860 C   0  0  0  0  0  0  0  0  0  0  0  0
   -1.3213   -2.2472    0.3132 C   0  0  0  0  0  0  0  0  0  0  0  0
   -2.6161   -1.8299    0.0258 C   0  0  0  0  0  0  0  0  0  0  0  0
   -2.8644   -0.4787   -0.1862 C   0  0  0  0  0  0  0  0  0  0  0  0
   -1.8149    0.4441   -0.1456 C   0  0  0  0  0  0  0  0  0  0  0  0
   -2.1823    1.7461   -0.3707 O   0  0  0  0  0  0  0  0  0  0  0  0
    2.8447   -4.3020   -0.6118 H   0  0  0  0  0  0  0  0  0  0  0  0
    3.7599   -5.7929   -0.7370 H   0  0  0  0  0  0  0  0  0  0  0  0
    2.5375   -5.5350    0.0000 H   0  0  0  0  0  0  0  0  0  0  0  0
    5.6280   -2.8544   -0.3323 H   0  0  0  0  0  0  0  0  0  0  0  0
    4.1009   -2.7462   -1.2027 H   0  0  0  0  0  0  0  0  0  0  0  0
    4.8297   -0.5305    0.0032 H   0  0  0  0  0  0  0  0  0  0  0  0
    4.5081   -0.8861    2.6005 H   0  0  0  0  0  0  0  0  0  0  0  0
    1.8491    0.5861    1.6869 H   0  0  0  0  0  0  0  0  0  0  0  0
    3.9710    1.5274    0.1691 H   0  0  0  0  0  0  0  0  0  0  0  0
    3.3453    2.2375    1.5870 H   0  0  0  0  0  0  0  0  0  0  0  0
    2.4996    3.1124   -1.2439 H   0  0  0  0  0  0  0  0  0  0  0  0
    2.2468    3.9472    0.3061 H   0  0  0  0  0  0  0  0  0  0  0  0
    6.5125    3.9872    0.4908 H   0  0  0  0  0  0  0  0  0  0  0  0
    9.1205    3.3713   -0.9203 H   0  0  0  0  0  0  0  0  0  0  0  0
    8.5169   -1.4659   -1.0345 H   0  0  0  0  0  0  0  0  0  0  0  0
    8.3687   -1.4865    0.7395 H   0  0  0  0  0  0  0  0  0  0  0  0
   11.2358    0.4522    0.5700 H   0  0  0  0  0  0  0  0  0  0  0  0
   13.5412   -0.3276    0.6156 H   0  0  0  0  0  0  0  0  0  0  0  0
   14.0843   -2.7076    0.1763 H   0  0  0  0  0  0  0  0  0  0  0  0
   12.2576   -4.3197   -0.2928 H   0  0  0  0  0  0  0  0  0  0  0  0
    9.9217   -3.5521   -0.4028 H   0  0  0  0  0  0  0  0  0  0  0  0
    6.6171    0.2663    0.6985 H   0  0  0  0  0  0  0  0  0  0  0  0
    0.7009   -1.7180    0.6294 H   0  0  0  0  0  0  0  0  0  0  0  0
   -1.1232   -3.3058    0.4744 H   0  0  0  0  0  0  0  0  0  0  0  0
   -3.4291   -2.5504   -0.0289 H   0  0  0  0  0  0  0  0  0  0  0  0
   -3.8758   -0.1371   -0.3934 H   0  0  0  0  0  0  0  0  0  0  0  0
   -1.3636    2.2893   -0.4032 H   0  0  0  0  0  0  0  0  0  0  0  0
  1  2  1  0  0  0  0
  1 39  1  0  0  0  0
  1 40  1  0  0  0  0
  1 41  1  0  0  0  0
  2  3  2  0  0  0  0
  2  4  1  0  0  0  0
  4  5  1  0  0  0  0
  4 42  1  0  0  0  0
  4 43  1  0  0  0  0
  5  6  2  0  0  0  0
  5  7  1  0  0  0  0
  7  8  1  0  0  0  0
  7  9  1  0  0  0  0
  7 44  1  6  0  0  0
  8 45  1  0  0  0  0
  9 10  2  0  0  0  0
  9 11  1  0  0  0  0
 11 12  1  0  0  0  0
 11 30  1  0  0  0  0
 11 46  1  6  0  0  0
 12 13  1  0  0  0  0
 12 47  1  0  0  0  0
 12 48  1  0  0  0  0
 13 14  1  0  0  0  0
 13 49  1  0  0  0  0
 13 50  1  0  0  0  0
 14 15  1  0  0  0  0
 15 16  2  0  0  0  0
 15 17  1  0  0  0  0
 17 18  1  0  0  0  0
 17 51  1  0  0  0  0
 18 29  2  0  0  0  0
 18 19  1  0  0  0  0
 19 20  2  0  0  0  0
 19 52  1  0  0  0  0
 20 21  1  0  0  0  0
 21 22  1  0  0  0  0
 21 29  1  0  0  0  0
 22 23  1  0  0  0  0
 22 53  1  0  0  0  0
 22 54  1  0  0  0  0
 23 28  2  0  0  0  0
 23 24  1  0  0  0  0
 24 25  2  0  0  0  0
 24 55  1  0  0  0  0
 25 26  1  0  0  0  0
 25 56  1  0  0  0  0
 26 27  2  0  0  0  0
 26 57  1  0  0  0  0
 27 28  1  0  0  0  0
 27 58  1  0  0  0  0
 28 59  1  0  0  0  0
 29 60  1  0  0  0  0
 30 31  2  0  0  0  0
 30 32  1  0  0  0  0
 32 37  2  0  0  0  0
 32 33  1  0  0  0  0
 33 34  2  0  0  0  0
 33 61  1  0  0  0  0
 34 35  1  0  0  0  0
 34 62  1  0  0  0  0
 35 36  2  0  0  0  0
 35 63  1  0  0  0  0
 36 37  1  0  0  0  0
 36 64  1  0  0  0  0
 37 38  1  0  0  0  0
 38 65  1  0  0  0  0
M  END
$$$$
