
 OpenBabel03202621342D

 30 30  0  0  1  0  0  0  0  0999 V2000
    2.2321   -5.8660    0.0000 C   0  0  0  0  0  0  0  0  0  0  0  0
    3.0981   -5.3660    0.0000 S   0  0  0  0  0  0  0  0  0  0  0  0
    2.9509   -3.8240   -0.9997 C   0  0  1  0  0  0  0  0  0  0  0  0
    4.2933   -3.0877   -0.8037 C   0  0  0  0  0  0  0  0  0  0  0  0
    4.4371   -1.9912   -1.7002 O   0  0  0  0  0  0  0  0  0  0  0  0
    1.6748   -3.0110   -0.6890 C   0  0  0  0  0  0  0  0  0  0  0  0
    1.8485   -1.6170   -0.0754 C   0  0  0  0  0  0  0  0  0  0  0  0
    0.4803   -1.0268    0.2786 C   0  0  0  0  0  0  0  0  0  0  0  0
    0.4869    0.5012    0.2984 C   0  0  0  0  0  0  0  0  0  0  0  0
   -0.8779    1.0236    0.6196 C   0  0  2  0  0  0  0  0  0  0  0  0
   -2.0058    0.9121   -0.3746 C   0  0  0  0  0  0  0  0  0  0  0  0
   -1.2968    2.1424   -0.1706 O   0  0  0  0  0  0  0  0  0  0  0  0
    2.3565   -6.4405   -0.9395 H   0  0  0  0  0  0  0  0  0  0  0  0
    2.4325   -6.5546    0.8425 H   0  0  0  0  0  0  0  0  0  0  0  0
    1.3055   -6.4010    0.0000 H   0  0  0  0  0  0  0  0  0  0  0  0
    2.8978   -4.1331   -2.0521 H   0  0  0  0  0  0  0  0  0  0  0  0
    4.4051   -2.7108    0.2224 H   0  0  0  0  0  0  0  0  0  0  0  0
    5.1403   -3.7591   -0.9995 H   0  0  0  0  0  0  0  0  0  0  0  0
    5.3003   -1.5805   -1.5130 H   0  0  0  0  0  0  0  0  0  0  0  0
    0.9805   -3.5833   -0.0623 H   0  0  0  0  0  0  0  0  0  0  0  0
    1.1461   -2.8763   -1.6429 H   0  0  0  0  0  0  0  0  0  0  0  0
    2.4615   -1.6583    0.8322 H   0  0  0  0  0  0  0  0  0  0  0  0
    2.3536   -0.9612   -0.7921 H   0  0  0  0  0  0  0  0  0  0  0  0
    0.1602   -1.4132    1.2548 H   0  0  0  0  0  0  0  0  0  0  0  0
   -0.2686   -1.3668   -0.4474 H   0  0  0  0  0  0  0  0  0  0  0  0
    0.8189    0.8794   -0.6762 H   0  0  0  0  0  0  0  0  0  0  0  0
    1.2009    0.8681    1.0445 H   0  0  0  0  0  0  0  0  0  0  0  0
   -1.1102    1.0251    1.6759 H   0  0  0  0  0  0  0  0  0  0  0  0
   -1.8363    0.3823   -1.3040 H   0  0  0  0  0  0  0  0  0  0  0  0
   -3.0166    0.8419    0.0069 H   0  0  0  0  0  0  0  0  0  0  0  0
  1  2  1  0  0  0  0
  1 13  1  0  0  0  0
  1 14  1  0  0  0  0
  1 15  1  0  0  0  0
  2  3  1  0  0  0  0
  3  4  1  0  0  0  0
  3  6  1  0  0  0  0
  3 16  1  1  0  0  0
  4  5  1  0  0  0  0
  4 17  1  0  0  0  0
  4 18  1  0  0  0  0
  5 19  1  0  0  0  0
  6  7  1  0  0  0  0
  6 20  1  0  0  0  0
  6 21  1  0  0  0  0
  7  8  1  0  0  0  0
  7 22  1  0  0  0  0
  7 23  1  0  0  0  0
  8  9  1  0  0  0  0
  8 24  1  0  0  0  0
  8 25  1  0  0  0  0
  9 26  1  0  0  0  0
  9 27  1  0  0  0  0
 10  9  1  0  0  0  0
 10 11  1  0  0  0  0
 10 12  1  0  0  0  0
 10 28  1  1  0  0  0
 11 12  1  0  0  0  0
 11 29  1  0  0  0  0
 11 30  1  0  0  0  0
M  END
$$$$
