
 OpenBabel03202621302D

 18 18  0  0  0  0  0  0  0  0999 V2000
    6.1933    3.1023    0.0149 O   0  0  0  0  0  0  0  0  0  0  0  0
    5.0395    3.5030    0.0553 C   0  0  0  0  0  0  0  0  0  0  0  0
    3.9231    2.7175   -0.0231 N   0  0  0  0  0  0  0  0  0  0  0  0
    4.0362    1.2838   -0.0984 C   0  0  0  0  0  0  0  0  0  0  0  0
    2.7286    0.6910   -0.3785 C   0  0  0  0  0  0  0  0  0  0  0  0
    1.6540    0.1881   -0.5580 C   0  0  0  0  0  0  0  0  0  0  0  0
    0.3732   -0.4367   -0.6981 C   0  0  0  0  0  0  0  0  0  0  0  0
   -0.0306   -1.4388    0.3523 C   0  0  0  0  0  0  0  0  0  0  0  0
   -0.7029   -0.0979    0.2997 C   0  0  0  0  0  0  0  0  0  0  0  0
    4.7860    4.5704    0.1657 H   0  0  0  0  0  0  0  0  0  0  0  0
    3.0143    3.1304    0.1373 H   0  0  0  0  0  0  0  0  0  0  0  0
    4.7695    1.0200   -0.8673 H   0  0  0  0  0  0  0  0  0  0  0  0
    4.4184    0.9294    0.8653 H   0  0  0  0  0  0  0  0  0  0  0  0
    0.0516   -0.6365   -1.7162 H   0  0  0  0  0  0  0  0  0  0  0  0
    0.6542   -1.6336    1.1710 H   0  0  0  0  0  0  0  0  0  0  0  0
   -0.5935   -2.3075    0.0328 H   0  0  0  0  0  0  0  0  0  0  0  0
   -0.4772    0.6167    1.0835 H   0  0  0  0  0  0  0  0  0  0  0  0
   -1.7272   -0.0583   -0.0516 H   0  0  0  0  0  0  0  0  0  0  0  0
  1  2  2  0  0  0  0
  2  3  1  0  0  0  0
  2 10  1  0  0  0  0
  3  4  1  0  0  0  0
  3 11  1  0  0  0  0
  4  5  1  0  0  0  0
  4 12  1  0  0  0  0
  4 13  1  0  0  0  0
  5  6  3  0  0  0  0
  6  7  1  0  0  0  0
  7  9  1  0  0  0  0
  7  8  1  0  0  0  0
  7 14  1  0  0  0  0
  8  9  1  0  0  0  0
  8 15  1  0  0  0  0
  8 16  1  0  0  0  0
  9 17  1  0  0  0  0
  9 18  1  0  0  0  0
M  END
$$$$
