
 OpenBabel03202621362D

 42 45  0  0  1  0  0  0  0  0999 V2000
    6.1425    2.0885    1.3738 O   0  0  0  0  0  0  0  0  0  0  0  0
    6.0606    1.1329    0.6019 C   0  0  0  0  0  0  0  0  0  0  0  0
    7.2977    0.5032    0.0205 C   0  0  0  0  0  0  0  0  0  0  0  0
    6.9631   -0.9134   -0.3756 C   0  0  0  0  0  0  0  0  0  0  0  0
    5.8895   -0.9313   -1.3212 O   0  0  0  0  0  0  0  0  0  0  0  0
    4.7692   -0.2825   -0.8518 C   0  0  0  0  0  0  0  0  0  0  0  0
    4.7218    0.6356    0.1293 C   0  0  0  0  0  0  0  0  0  0  0  0
    3.6350    1.2137    0.7124 O   0  0  0  0  0  0  0  0  0  0  0  0
    2.2619    0.8003    0.6248 C   0  0  1  0  0  0  0  0  0  0  0  0
    1.9616   -0.7025    0.4406 C   0  0  0  0  0  0  0  0  0  0  0  0
    2.7796   -1.5146    1.2763 O   0  0  0  0  0  0  0  0  0  0  0  0
    1.5486    1.7331   -0.3665 C   0  0  0  0  0  0  0  0  0  0  0  0
    0.1423    1.4543   -0.5295 N   0  0  0  0  0  0  0  0  0  0  0  0
   -0.9415    2.1032   -0.0158 C   0  0  0  0  0  0  0  0  0  0  0  0
   -1.9889    1.2662   -0.3335 C   0  0  0  0  0  0  0  0  0  0  0  0
   -3.4131    1.4296    0.0071 C   0  0  0  0  0  0  0  0  0  0  0  0
   -4.0908    2.5663    0.3862 C   0  0  0  0  0  0  0  0  0  0  0  0
   -5.4406    2.3207    0.5084 N   0  0  0  0  0  0  0  0  0  0  0  0
   -5.5820    1.0378    0.2437 C   0  0  0  0  0  0  0  0  0  0  0  0
   -6.7304    0.2154    0.2054 C   0  0  0  0  0  0  0  0  0  0  0  0
   -6.5905   -1.1046    0.0149 C   0  0  0  0  0  0  0  0  0  0  0  0
   -5.2107   -1.6173   -0.1486 C   0  0  0  0  0  0  0  0  0  0  0  0
   -4.1312   -0.9073   -0.1871 N   0  0  0  0  0  0  0  0  0  0  0  0
   -4.3594    0.4317   -0.0179 N   0  0  0  0  0  0  0  0  0  0  0  0
   -1.5188    0.2083   -1.0587 N   0  0  0  0  0  0  0  0  0  0  0  0
   -0.2214    0.3742   -1.2412 N   0  0  0  0  0  0  0  0  0  0  0  0
    7.6057    1.0951   -0.8476 H   0  0  0  0  0  0  0  0  0  0  0  0
    8.0935    0.5091    0.7712 H   0  0  0  0  0  0  0  0  0  0  0  0
    7.8305   -1.3903   -0.8446 H   0  0  0  0  0  0  0  0  0  0  0  0
    6.6887   -1.5255    0.4950 H   0  0  0  0  0  0  0  0  0  0  0  0
    3.9178   -0.6420   -1.4114 H   0  0  0  0  0  0  0  0  0  0  0  0
    1.8661    1.0393    1.6228 H   0  0  0  0  0  0  0  0  0  0  0  0
    0.9236   -0.9121    0.7201 H   0  0  0  0  0  0  0  0  0  0  0  0
    2.0877   -1.0252   -0.5958 H   0  0  0  0  0  0  0  0  0  0  0  0
    2.5260   -2.4382    1.0990 H   0  0  0  0  0  0  0  0  0  0  0  0
    1.6476    2.7738   -0.0326 H   0  0  0  0  0  0  0  0  0  0  0  0
    2.0163    1.6838   -1.3564 H   0  0  0  0  0  0  0  0  0  0  0  0
   -0.8684    3.0201    0.5521 H   0  0  0  0  0  0  0  0  0  0  0  0
   -3.6970    3.5630    0.5300 H   0  0  0  0  0  0  0  0  0  0  0  0
   -7.7062    0.6722    0.3255 H   0  0  0  0  0  0  0  0  0  0  0  0
   -7.4168   -1.7974   -0.0319 H   0  0  0  0  0  0  0  0  0  0  0  0
   -5.1278   -2.7128   -0.2484 H   0  0  0  0  0  0  0  0  0  0  0  0
  1  2  2  0  0  0  0
  2  7  1  0  0  0  0
  2  3  1  0  0  0  0
  3  4  1  0  0  0  0
  3 27  1  0  0  0  0
  3 28  1  0  0  0  0
  4  5  1  0  0  0  0
  4 29  1  0  0  0  0
  4 30  1  0  0  0  0
  5  6  1  0  0  0  0
  6  7  2  0  0  0  0
  6 31  1  0  0  0  0
  7  8  1  0  0  0  0
  8  9  1  0  0  0  0
  9 10  1  0  0  0  0
  9 12  1  0  0  0  0
  9 32  1  6  0  0  0
 10 11  1  0  0  0  0
 10 33  1  0  0  0  0
 10 34  1  0  0  0  0
 11 35  1  0  0  0  0
 12 13  1  0  0  0  0
 12 36  1  0  0  0  0
 12 37  1  0  0  0  0
 13 26  1  0  0  0  0
 13 14  1  0  0  0  0
 14 15  2  0  0  0  0
 14 38  1  0  0  0  0
 15 16  1  0  0  0  0
 15 25  1  0  0  0  0
 16 24  1  0  0  0  0
 16 17  2  0  0  0  0
 17 18  1  0  0  0  0
 17 39  1  0  0  0  0
 18 19  2  0  0  0  0
 19 24  1  0  0  0  0
 19 20  1  0  0  0  0
 20 21  2  0  0  0  0
 20 40  1  0  0  0  0
 21 22  1  0  0  0  0
 21 41  1  0  0  0  0
 22 23  2  0  0  0  0
 22 42  1  0  0  0  0
 23 24  1  0  0  0  0
 25 26  2  0  0  0  0
M  END
$$$$
