
 OpenBabel03202621282D

 15 16  0  0  0  0  0  0  0  0999 V2000
   -2.3801   -2.1554    0.0000 O   0  0  0  0  0  0  0  0  0  0  0  0
   -1.6730   -1.4483    0.0000 C   0  0  0  0  0  0  0  0  0  0  0  0
   -0.7071   -1.7071    0.0000 C   0  0  0  0  0  0  0  0  0  0  0  0
    0.0000   -1.0000    0.0000 C   0  0  0  0  0  0  0  0  0  0  0  0
    0.0000    0.0000    0.0000 C   0  0  0  0  0  0  0  0  0  0  0  0
    1.0000   -0.0000    0.0000 C   0  0  0  0  0  0  0  0  0  0  0  0
    1.0000   -1.0000    0.0000 C   0  0  0  0  0  0  0  0  0  0  0  0
   -1.9319   -0.4824    0.0000 O   0  0  0  0  0  0  0  0  0  0  0  0
   -2.8978   -0.2235    0.0000 C   0  0  0  0  0  0  0  0  0  0  0  0
   -3.6049   -0.9306    0.0000 C   0  0  0  0  0  0  0  0  0  0  0  0
   -4.5708   -0.6718    0.0000 O   0  0  0  0  0  0  0  0  0  0  0  0
   -4.8296    0.2941    0.0000 C   0  0  0  0  0  0  0  0  0  0  0  0
   -4.1225    1.0012    0.0000 C   0  0  0  0  0  0  0  0  0  0  0  0
   -3.1566    0.7424    0.0000 C   0  0  0  0  0  0  0  0  0  0  0  0
   -2.4495    1.4495    0.0000 O   0  0  0  0  0  0  0  0  0  0  0  0
  1  2  2  0  0  0  0
  2  3  1  0  0  0  0
  2  8  1  0  0  0  0
  3  4  2  0  0  0  0
  4  7  1  0  0  0  0
  4  5  1  0  0  0  0
  5  6  1  0  0  0  0
  6  7  1  0  0  0  0
  8  9  1  0  0  0  0
  9 14  1  0  0  0  0
  9 10  2  0  0  0  0
 10 11  1  0  0  0  0
 11 12  1  0  0  0  0
 12 13  1  0  0  0  0
 13 14  1  0  0  0  0
 14 15  2  0  0  0  0
M  END
$$$$
