
 OpenBabel03202621302D

 19 18  0  0  1  0  0  0  0  0999 V2000
    3.4641    0.0000    0.0000 C   0  0  0  0  0  0  0  0  0  0  0  0
    3.4641    1.0000    0.0000 S   0  0  0  0  0  0  0  0  0  0  0  0
    1.7960    1.4971   -0.5781 C   0  0  0  0  0  0  0  0  0  0  0  0
    0.5846    0.9091    0.1735 C   0  0  2  0  0  0  0  0  0  0  0  0
   -0.5296    1.7784   -0.0251 O   0  0  0  0  0  0  0  0  0  0  0  0
    0.2254   -0.4989   -0.3248 C   0  0  0  0  0  0  0  0  0  0  0  0
   -1.0655   -1.0666    0.2673 C   0  0  0  0  0  0  0  0  0  0  0  0
   -2.5172   -0.5570   -0.6271 Cl  0  0  0  0  0  0  0  0  0  0  0  0
    3.7945   -0.1798   -1.0429 H   0  0  0  0  0  0  0  0  0  0  0  0
    4.3362   -0.1709    0.6592 H   0  0  0  0  0  0  0  0  0  0  0  0
    3.4641   -1.0700    0.0000 H   0  0  0  0  0  0  0  0  0  0  0  0
    1.7108    1.3109   -1.6568 H   0  0  0  0  0  0  0  0  0  0  0  0
    1.7722    2.5893   -0.4767 H   0  0  0  0  0  0  0  0  0  0  0  0
    0.7746    0.8812    1.2533 H   0  0  0  0  0  0  0  0  0  0  0  0
   -0.3382    2.6263    0.4132 H   0  0  0  0  0  0  0  0  0  0  0  0
    1.0360   -1.1831   -0.0564 H   0  0  0  0  0  0  0  0  0  0  0  0
    0.1554   -0.5076   -1.4199 H   0  0  0  0  0  0  0  0  0  0  0  0
   -1.0440   -2.1599    0.2086 H   0  0  0  0  0  0  0  0  0  0  0  0
   -1.1892   -0.7869    1.3179 H   0  0  0  0  0  0  0  0  0  0  0  0
  1  2  1  0  0  0  0
  1  9  1  0  0  0  0
  1 10  1  0  0  0  0
  1 11  1  0  0  0  0
  2  3  1  0  0  0  0
  3  4  1  0  0  0  0
  3 12  1  0  0  0  0
  3 13  1  0  0  0  0
  4  5  1  0  0  0  0
  4  6  1  0  0  0  0
  4 14  1  6  0  0  0
  5 15  1  0  0  0  0
  6  7  1  0  0  0  0
  6 16  1  0  0  0  0
  6 17  1  0  0  0  0
  7  8  1  0  0  0  0
  7 18  1  0  0  0  0
  7 19  1  0  0  0  0
M  END
$$$$
