
 OpenBabel03202621282D

 17 17  0  0  1  0  0  0  0  0999 V2000
    2.2321    2.5981    0.0000 C   0  0  0  0  0  0  0  0  0  0  0  0
    1.7321    1.7321    0.0000 O   0  0  0  0  0  0  0  0  0  0  0  0
    2.2321    0.8660    0.0000 C   0  0  0  0  0  0  0  0  0  0  0  0
    3.2321    0.8660    0.0000 O   0  0  0  0  0  0  0  0  0  0  0  0
    1.7321    0.0000    0.0000 C   0  0  2  0  0  0  0  0  0  0  0  0
    2.5981   -0.5000    0.0000 C   0  0  0  0  0  0  0  0  0  0  0  0
    1.2321   -0.8660    0.0000 N   0  0  0  0  0  0  0  0  0  0  0  0
    1.7321   -1.7321    0.0000 C   0  0  0  0  0  0  0  0  0  0  0  0
    2.7321   -1.7321    0.0000 S   0  0  0  0  0  0  0  0  0  0  0  0
    1.2321   -2.5981    0.0000 S   0  0  0  0  0  0  0  0  0  0  0  0
    1.7321   -3.4641    0.0000 C   0  0  0  0  0  0  0  0  0  0  0  0
    0.8660    0.5000    0.0000 C   0  0  0  0  0  0  0  0  0  0  0  0
    0.8660    1.5000    0.0000 C   0  0  0  0  0  0  0  0  0  0  0  0
   -0.0000    2.0000    0.0000 C   0  0  0  0  0  0  0  0  0  0  0  0
   -0.8660    1.5000    0.0000 C   0  0  0  0  0  0  0  0  0  0  0  0
   -0.8660    0.5000    0.0000 C   0  0  0  0  0  0  0  0  0  0  0  0
    0.0000   -0.0000    0.0000 C   0  0  0  0  0  0  0  0  0  0  0  0
  1  2  1  0  0  0  0
  2  3  1  0  0  0  0
  3  4  2  0  0  0  0
  3  5  1  0  0  0  0
  5  6  1  1  0  0  0
  5  7  1  0  0  0  0
  5 12  1  0  0  0  0
  7  8  1  0  0  0  0
  8  9  2  0  0  0  0
  8 10  1  0  0  0  0
 10 11  1  0  0  0  0
 12 17  2  0  0  0  0
 12 13  1  0  0  0  0
 13 14  2  0  0  0  0
 14 15  1  0  0  0  0
 15 16  2  0  0  0  0
 16 17  1  0  0  0  0
M  END
$$$$
