
 OpenBabel03202621302D

 34 34  0  0  1  0  0  0  0  0999 V2000
   -2.5981   -4.5000    0.0000 C   0  0  0  0  0  0  0  0  0  0  0  0
   -1.7321   -5.0000    0.0000 S   0  0  0  0  0  0  0  0  0  0  0  0
   -0.4572   -3.8512   -0.6451 C   0  0  0  0  0  0  0  0  0  0  0  0
   -0.2578   -2.6590    0.2944 C   0  0  2  0  0  0  0  0  0  0  0  0
    1.0993   -2.2149    0.2800 O   0  0  0  0  0  0  0  0  0  0  0  0
   -1.2499   -1.5355   -0.0416 C   0  0  0  0  0  0  0  0  0  0  0  0
   -0.8946   -0.7025   -1.1420 O   0  0  0  0  0  0  0  0  0  0  0  0
    0.0784    0.3158   -0.8800 C   0  0  0  0  0  0  0  0  0  0  0  0
   -0.1511    1.1141    0.4190 C   0  0  2  0  0  0  0  0  0  0  0  0
   -1.5777    1.7001    0.5037 C   0  0  0  0  0  0  0  0  0  0  0  0
   -1.7321    3.0486   -0.1246 C   0  0  0  0  0  0  0  0  0  0  0  0
   -0.6936    3.8005   -0.5167 C   0  0  0  0  0  0  0  0  0  0  0  0
    0.7340    3.3866   -0.3400 C   0  0  0  0  0  0  0  0  0  0  0  0
    0.9054    2.2106    0.6184 C   0  0  0  0  0  0  0  0  0  0  0  0
   -2.9579   -4.7660   -1.0140 H   0  0  0  0  0  0  0  0  0  0  0  0
   -3.1546   -5.1219    0.7265 H   0  0  0  0  0  0  0  0  0  0  0  0
   -3.5247   -3.9650    0.0000 H   0  0  0  0  0  0  0  0  0  0  0  0
    0.4704   -4.4330   -0.7065 H   0  0  0  0  0  0  0  0  0  0  0  0
   -0.6893   -3.5435   -1.6717 H   0  0  0  0  0  0  0  0  0  0  0  0
   -0.4456   -2.9716    1.3297 H   0  0  0  0  0  0  0  0  0  0  0  0
    1.6595   -2.9668    0.5489 H   0  0  0  0  0  0  0  0  0  0  0  0
   -2.2220   -1.9588   -0.3095 H   0  0  0  0  0  0  0  0  0  0  0  0
   -1.4602   -0.9570    0.8581 H   0  0  0  0  0  0  0  0  0  0  0  0
    1.0775   -0.1308   -0.8877 H   0  0  0  0  0  0  0  0  0  0  0  0
    0.0497    0.9850   -1.7469 H   0  0  0  0  0  0  0  0  0  0  0  0
   -0.0254    0.4207    1.2591 H   0  0  0  0  0  0  0  0  0  0  0  0
   -1.8657    1.7823    1.5586 H   0  0  0  0  0  0  0  0  0  0  0  0
   -2.3090    1.0253    0.0422 H   0  0  0  0  0  0  0  0  0  0  0  0
   -2.7461    3.4137   -0.2668 H   0  0  0  0  0  0  0  0  0  0  0  0
   -0.8804    4.7641   -0.9840 H   0  0  0  0  0  0  0  0  0  0  0  0
    1.3111    4.2382    0.0460 H   0  0  0  0  0  0  0  0  0  0  0  0
    1.1522    3.1395   -1.3228 H   0  0  0  0  0  0  0  0  0  0  0  0
    1.9136    1.7910    0.5206 H   0  0  0  0  0  0  0  0  0  0  0  0
    0.8238    2.5778    1.6499 H   0  0  0  0  0  0  0  0  0  0  0  0
  1  2  1  0  0  0  0
  1 15  1  0  0  0  0
  1 16  1  0  0  0  0
  1 17  1  0  0  0  0
  2  3  1  0  0  0  0
  3  4  1  0  0  0  0
  3 18  1  0  0  0  0
  3 19  1  0  0  0  0
  4  5  1  0  0  0  0
  4  6  1  0  0  0  0
  4 20  1  6  0  0  0
  5 21  1  0  0  0  0
  6  7  1  0  0  0  0
  6 22  1  0  0  0  0
  6 23  1  0  0  0  0
  7  8  1  0  0  0  0
  8 24  1  0  0  0  0
  8 25  1  0  0  0  0
  9  8  1  0  0  0  0
  9 10  1  0  0  0  0
  9 14  1  0  0  0  0
  9 26  1  1  0  0  0
 10 11  1  0  0  0  0
 10 27  1  0  0  0  0
 10 28  1  0  0  0  0
 11 12  2  0  0  0  0
 11 29  1  0  0  0  0
 12 13  1  0  0  0  0
 12 30  1  0  0  0  0
 13 14  1  0  0  0  0
 13 31  1  0  0  0  0
 13 32  1  0  0  0  0
 14 33  1  0  0  0  0
 14 34  1  0  0  0  0
M  END
$$$$
