
 OpenBabel03202621382D

 17 17  0  0  0  0  0  0  0  0999 V2000
    0.2788   -1.7601    0.0000 C   0  0  0  0  0  0  0  0  0  0  0  0
   -0.3090   -0.9511    0.0000 C   0  0  0  0  0  0  0  0  0  0  0  0
   -1.7141   -0.8901   -0.0000 C   0  0  0  0  0  0  0  0  0  0  0  0
   -2.5723   -1.9363   -0.0000 N   0  0  0  0  0  0  0  0  0  0  0  0
   -2.0768    0.4473   -0.0000 C   0  0  0  0  0  0  0  0  0  0  0  0
   -3.2886    0.9981    0.0000 O   0  0  0  0  0  0  0  0  0  0  0  0
   -1.0538    1.2710    0.0000 N   0  0  0  0  0  0  0  0  0  0  0  0
    0.0311    0.4323    0.0000 N   0  0  0  0  0  0  0  0  0  0  0  0
    1.3203    1.0118    0.0000 C   0  0  0  0  0  0  0  0  0  0  0  0
    1.4672    2.2331    0.0000 O   0  0  0  0  0  0  0  0  0  0  0  0
   -0.3258   -2.6757   -0.0000 H   0  0  0  0  0  0  0  0  0  0  0  0
    1.3291   -1.4535   -0.0000 H   0  0  0  0  0  0  0  0  0  0  0  0
    0.9077   -2.6257    0.0000 H   0  0  0  0  0  0  0  0  0  0  0  0
   -3.5788   -1.7896    0.0000 H   0  0  0  0  0  0  0  0  0  0  0  0
   -2.2976   -2.9141   -0.0000 H   0  0  0  0  0  0  0  0  0  0  0  0
   -3.1249    1.9553    0.0000 H   0  0  0  0  0  0  0  0  0  0  0  0
    2.1884    0.3382    0.0000 H   0  0  0  0  0  0  0  0  0  0  0  0
  1  2  1  0  0  0  0
  1 11  1  0  0  0  0
  1 12  1  0  0  0  0
  1 13  1  0  0  0  0
  2  8  1  0  0  0  0
  2  3  2  0  0  0  0
  3  4  1  0  0  0  0
  3  5  1  0  0  0  0
  4 14  1  0  0  0  0
  4 15  1  0  0  0  0
  5  6  1  0  0  0  0
  5  7  2  0  0  0  0
  6 16  1  0  0  0  0
  7  8  1  0  0  0  0
  8  9  1  0  0  0  0
  9 10  2  0  0  0  0
  9 17  1  0  0  0  0
M  END
$$$$
