
 OpenBabel03202621332D

 26 26  0  0  1  0  0  0  0  0999 V2000
   -4.8564    1.5180    0.0000 C   0  0  0  0  0  0  0  0  0  0  0  0
   -4.6485    0.5398    0.0000 S   0  0  0  0  0  0  0  0  0  0  0  0
   -2.9629    0.7702   -0.4750 C   0  0  0  0  0  0  0  0  0  0  0  0
   -2.6346    2.1626   -1.0686 C   0  0  2  0  0  0  0  0  0  0  0  0
   -2.5300    3.0884    0.0318 O   0  0  0  0  0  0  0  0  0  0  0  0
   -1.4167    1.9592   -1.9472 C   0  0  0  0  0  0  0  0  0  0  0  0
   -0.0203    2.6264   -1.1612 S   0  0  0  0  0  0  0  0  0  0  0  0
    0.4818    1.2974   -0.1427 C   0  0  0  0  0  0  0  0  0  0  0  0
    1.5716    1.5304    0.4917 N   0  0  0  0  0  0  0  0  0  0  0  0
    2.1089    0.3918    0.9329 N   0  0  0  0  0  0  0  0  0  0  0  0
    1.2931   -0.5259    0.5923 C   0  0  0  0  0  0  0  0  0  0  0  0
    0.0000    0.0000    0.0000 N   0  0  0  0  0  0  0  0  0  0  0  0
   -0.5878   -0.8090    0.0000 C   0  0  0  0  0  0  0  0  0  0  0  0
   -5.0641    1.6519    1.0808 H   0  0  0  0  0  0  0  0  0  0  0  0
   -5.8313    1.4866   -0.5246 H   0  0  0  0  0  0  0  0  0  0  0  0
   -5.0788    2.5646    0.0000 H   0  0  0  0  0  0  0  0  0  0  0  0
   -2.7616   -0.0306   -1.1875 H   0  0  0  0  0  0  0  0  0  0  0  0
   -2.4128    0.6413    0.4587 H   0  0  0  0  0  0  0  0  0  0  0  0
   -3.4272    2.5519   -1.7192 H   0  0  0  0  0  0  0  0  0  0  0  0
   -2.0853    3.9057   -0.2554 H   0  0  0  0  0  0  0  0  0  0  0  0
   -1.5425    2.4135   -2.9270 H   0  0  0  0  0  0  0  0  0  0  0  0
   -1.2199    0.8992   -2.1430 H   0  0  0  0  0  0  0  0  0  0  0  0
    1.4307   -1.5854    0.7835 H   0  0  0  0  0  0  0  0  0  0  0  0
   -0.7383   -1.0962    1.0686 H   0  0  0  0  0  0  0  0  0  0  0  0
   -0.1524   -1.5017   -0.7572 H   0  0  0  0  0  0  0  0  0  0  0  0
   -1.2167   -1.6746    0.0000 H   0  0  0  0  0  0  0  0  0  0  0  0
  1  2  1  0  0  0  0
  1 14  1  0  0  0  0
  1 15  1  0  0  0  0
  1 16  1  0  0  0  0
  2  3  1  0  0  0  0
  3  4  1  0  0  0  0
  3 17  1  0  0  0  0
  3 18  1  0  0  0  0
  4  5  1  0  0  0  0
  4  6  1  0  0  0  0
  4 19  1  1  0  0  0
  5 20  1  0  0  0  0
  6  7  1  0  0  0  0
  6 21  1  0  0  0  0
  6 22  1  0  0  0  0
  7  8  1  0  0  0  0
  8 12  1  0  0  0  0
  8  9  2  0  0  0  0
  9 10  1  0  0  0  0
 10 11  2  0  0  0  0
 11 12  1  0  0  0  0
 11 23  1  0  0  0  0
 12 13  1  0  0  0  0
 13 24  1  0  0  0  0
 13 25  1  0  0  0  0
 13 26  1  0  0  0  0
M  END
$$$$
