
 OpenBabel03202621342D

 29 31  0  0  0  0  0  0  0  0999 V2000
   -0.9706   -1.4945    0.0000 C   0  0  0  0  0  0  0  0  0  0  0  0
   -0.8660   -0.5000    0.0000 C   0  0  0  0  0  0  0  0  0  0  0  0
   -1.4902    0.4904   -0.7514 C   0  0  0  0  0  0  0  0  0  0  0  0
   -1.3157    1.6468   -0.0391 N   0  0  0  0  0  0  0  0  0  0  0  0
   -2.0375    2.8985   -0.1106 C   0  0  0  0  0  0  0  0  0  0  0  0
   -3.5047    2.8779    0.2830 C   0  0  0  0  0  0  0  0  0  0  0  0
   -4.1132    3.9565    0.2743 O   0  0  0  0  0  0  0  0  0  0  0  0
   -4.1939    1.6256    0.5358 C   0  0  0  0  0  0  0  0  0  0  0  0
   -3.8613    0.4716    1.2245 C   0  0  0  0  0  0  0  0  0  0  0  0
   -4.8009   -0.5201    0.8374 C   0  0  0  0  0  0  0  0  0  0  0  0
   -4.9189   -1.9115    1.0006 C   0  0  0  0  0  0  0  0  0  0  0  0
   -6.0287   -2.5588    0.4381 C   0  0  0  0  0  0  0  0  0  0  0  0
   -7.0201   -1.8365   -0.2321 C   0  0  0  0  0  0  0  0  0  0  0  0
   -6.9177   -0.4517   -0.4037 C   0  0  0  0  0  0  0  0  0  0  0  0
   -5.7751    0.1515    0.1146 C   0  0  0  0  0  0  0  0  0  0  0  0
   -5.4243    1.4568   -0.0466 O   0  0  0  0  0  0  0  0  0  0  0  0
   -0.3939    1.4793    0.9139 N   0  0  0  0  0  0  0  0  0  0  0  0
   -0.1133    0.1892    0.9549 N   0  0  0  0  0  0  0  0  0  0  0  0
   -1.3667   -1.6509    1.0317 H   0  0  0  0  0  0  0  0  0  0  0  0
    0.1007   -1.7978   -0.0684 H   0  0  0  0  0  0  0  0  0  0  0  0
   -1.0825   -2.5586    0.0000 H   0  0  0  0  0  0  0  0  0  0  0  0
   -2.1830    0.4324   -1.5790 H   0  0  0  0  0  0  0  0  0  0  0  0
   -1.5284    3.6143    0.5437 H   0  0  0  0  0  0  0  0  0  0  0  0
   -1.9542    3.2505   -1.1474 H   0  0  0  0  0  0  0  0  0  0  0  0
   -2.9774    0.3155    1.8285 H   0  0  0  0  0  0  0  0  0  0  0  0
   -4.1532   -2.4821    1.5176 H   0  0  0  0  0  0  0  0  0  0  0  0
   -6.1185   -3.6398    0.5261 H   0  0  0  0  0  0  0  0  0  0  0  0
   -7.8811   -2.3613   -0.6414 H   0  0  0  0  0  0  0  0  0  0  0  0
   -7.6681    0.1210   -0.9345 H   0  0  0  0  0  0  0  0  0  0  0  0
  1  2  1  0  0  0  0
  1 19  1  0  0  0  0
  1 20  1  0  0  0  0
  1 21  1  0  0  0  0
  2 18  1  0  0  0  0
  2  3  2  0  0  0  0
  3  4  1  0  0  0  0
  3 22  1  0  0  0  0
  4  5  1  0  0  0  0
  4 17  1  0  0  0  0
  5  6  1  0  0  0  0
  5 23  1  0  0  0  0
  5 24  1  0  0  0  0
  6  7  2  0  0  0  0
  6  8  1  0  0  0  0
  8 16  1  0  0  0  0
  8  9  2  0  0  0  0
  9 10  1  0  0  0  0
  9 25  1  0  0  0  0
 10 15  2  0  0  0  0
 10 11  1  0  0  0  0
 11 12  2  0  0  0  0
 11 26  1  0  0  0  0
 12 13  1  0  0  0  0
 12 27  1  0  0  0  0
 13 14  2  0  0  0  0
 13 28  1  0  0  0  0
 14 15  1  0  0  0  0
 14 29  1  0  0  0  0
 15 16  1  0  0  0  0
 17 18  2  0  0  0  0
M  END
$$$$
