fraglig_522_min_6PQL_A_2.66015_rhidx
     RDKit          3D

  9  8  0  0  0  0  0  0  0  0999 V2000
   56.2300   60.1900  117.8100 C   0  0  0  0  0  0  0  0  0  0  0  0
   57.1900   59.5100  118.0400 C   0  0  0  0  0  0  0  0  0  0  0  0
   58.1700   58.9100  118.4500 C   0  0  0  0  0  0  0  0  0  0  0  0
   59.2100   58.4000  119.0700 O   0  0  0  0  0  0  0  0  0  0  0  0
   59.8800   57.4600  118.4500 C   0  0  0  0  0  0  0  0  0  0  0  0
   60.4900   56.6100  117.9200 O   0  0  0  0  0  0  0  0  0  0  0  0
   55.2800   60.9500  117.7500 C   0  0  0  0  0  0  0  0  0  0  0  0
   54.3800   61.7300  117.8000 C   0  0  0  0  0  0  0  0  0  0  0  0
   53.4800   62.5200  117.8800 C   0  0  0  0  0  0  0  0  0  0  0  0
  1  2  3  0
  2  3  1  0
  3  4  1  0
  5  4  1  0
  6  5  1  0
  7  8  3  0
  7  1  1  0
  8  9  1  0
M  END
