LIG
     RDKit          3D

 43 43  0  0  0  0  0  0  0  0999 V2000
   -0.8307    0.1217   -0.4796 C   0  0  0  0  0  0  0  0  0  0  0  0
    0.4431    0.4831    0.2884 C   0  0  0  0  0  0  0  0  0  0  0  0
    0.4283    1.9400    0.6895 C   0  0  0  0  0  0  0  0  0  0  0  0
   -0.1396    2.8265    0.0652 O   0  0  0  0  0  0  0  0  0  0  0  0
    1.3697    2.3057    2.1333 S   0  0  0  0  0  0  0  0  0  0  0  0
    1.6538    4.0927    1.8639 C   0  0  0  0  0  0  0  0  0  0  0  0
    2.4971    4.4669    0.6306 C   0  0  2  0  0  0  0  0  0  0  0  0
    4.2083    3.8337    0.7685 S   0  0  0  0  0  0  0  0  0  0  0  0
    2.4862    5.9046    0.5424 O   0  0  0  0  0  0  0  0  0  0  0  0
    4.6380    4.8023    1.5909 H   0  0  0  0  0  0  0  0  0  0  0  0
    2.9342    6.2528   -0.8036 O   0  0  0  0  0  0  0  0  0  0  0  0
   -2.8888   -3.6492   -2.1046 H   0  0  0  0  0  0  0  0  0  0  0  0
   -1.7106    0.3061    0.1529 H   0  0  0  0  0  0  0  0  0  0  0  0
   -0.9161    0.7955   -1.3430 H   0  0  0  0  0  0  0  0  0  0  0  0
    2.1274    4.4910    2.7701 H   0  0  0  0  0  0  0  0  0  0  0  0
    0.6798    4.5965    1.8171 H   0  0  0  0  0  0  0  0  0  0  0  0
    2.0498    4.0582   -0.2811 H   0  0  0  0  0  0  0  0  0  0  0  0
    2.0726    6.5777   -1.1305 H   0  0  0  0  0  0  0  0  0  0  0  0
    1.3285    0.3213   -0.3358 H   0  0  0  0  0  0  0  0  0  0  0  0
    0.5292   -0.1431    1.1842 H   0  0  0  0  0  0  0  0  0  0  0  0
   -0.7988   -5.0312    1.3787 C   0  0  0  0  0  0  0  0  0  0  0  0
   -1.6692   -4.7427    2.5295 C   0  0  0  0  0  0  0  0  0  0  0  0
   -2.3581   -4.5006    3.4841 C   0  0  0  0  0  0  0  0  0  0  0  0
   -2.9681   -4.2835    4.3328 H   0  0  0  0  0  0  0  0  0  0  0  0
   -1.4829   -4.7410    0.1100 N   0  0  0  0  0  0  0  0  0  0  0  0
   -0.4784   -6.0811    1.4034 H   0  0  0  0  0  0  0  0  0  0  0  0
   -2.3592   -5.8154   -0.3676 C   0  0  0  0  0  0  0  0  0  0  0  0
   -2.0844   -6.7889    0.0583 H   0  0  0  0  0  0  0  0  0  0  0  0
   -2.2905   -5.9216   -1.4577 H   0  0  0  0  0  0  0  0  0  0  0  0
   -3.4027   -5.6075   -0.0951 H   0  0  0  0  0  0  0  0  0  0  0  0
   -0.4082   -1.7791   -3.5103 O   0  0  0  0  0  0  0  0  0  0  0  0
    0.0572   -1.7259   -2.6443 H   0  0  0  0  0  0  0  0  0  0  0  0
   -1.7360   -1.2601   -3.1656 N   0  0  0  0  0  0  0  0  0  0  0  0
    0.2790   -2.5308    0.3125 H   0  0  0  0  0  0  0  0  0  0  0  0
   -1.2541   -1.9396    1.0262 H   0  0  0  0  0  0  0  0  0  0  0  0
   -2.9025   -1.0451   -1.4257 H   0  0  0  0  0  0  0  0  0  0  0  0
    0.1285   -4.4518    1.4588 H   0  0  0  0  0  0  0  0  0  0  0  0
   -2.3403   -1.8365   -3.7489 H   0  0  0  0  0  0  0  0  0  0  0  0
   -0.8104   -1.2636   -0.9680 N   0  0  0  0  0  0  0  0  0  0  0  0
   -0.7674   -2.2820    0.1047 C   0  0  0  0  0  0  0  0  0  0  0  0
   -1.5288   -3.4670   -0.4494 C   0  0  0  0  0  0  0  0  0  0  0  0
   -2.2202   -3.0448   -1.5171 C   0  0  0  0  0  0  0  0  0  0  0  0
   -2.0078   -1.5866   -1.7647 C   0  0  2  0  0  0  0  0  0  0  0  0
  1  2  1  0
  2  3  1  0
  3  5  1  0
  4  3  2  0
  5  6  1  0
  7  9  1  0
  8  7  1  0
  8 10  1  0
 11  9  1  0
  7  6  1  0
 13  1  1  0
 14  1  1  0
  6 15  1  0
  6 16  1  0
  7 17  1  6
 11 18  1  0
  2 19  1  0
  2 20  1  0
 21 25  1  0
 22 23  3  0
 22 21  1  0
 23 24  1  0
 21 26  1  0
 27 25  1  0
 27 28  1  0
 27 29  1  0
 27 30  1  0
 32 31  1  0
 33 31  1  0
 21 37  1  0
 33 38  1  0
 39 40  1  0
 39 43  1  0
 39  1  1  0
 40 41  1  0
 40 34  1  0
 40 35  1  0
 41 42  2  0
 41 25  1  0
 42 43  1  0
 42 12  1  0
 43 33  1  0
 43 36  1  1
A    1
 C1 
A    2
 C2 
A    3
 C3 
A    4
 O1 
A    5
 S1 
A    6
 C4 
A    7
 C10
A    8
 S2 
A    9
 O2 
A   10
 H3 
A   11
 O3 
A   12
 H4 
A   13
 H5 
A   14
 H6 
A   15
 H7 
A   16
 H8 
A   17
 H10
A   18
 H11
A   19
 H11
A   20
 H12
A   21
 C7 
A   22
 C8 
A   23
 C9 
A   24
 H1 
A   25
 H2 
A   26
 H9 
A   27
 C11
A   28
 H16
A   29
 H17
A   30
 H18
A   31
 H14
A   32
 H16
A   33
 N3 
A   34
 H17
A   35
 H18
A   36
 H19
A   37
 H20
A   38
 H21
M  END
