LIG
     RDKit          3D

 43 43  0  0  0  0  0  0  0  0999 V2000
   57.3050   58.7520  117.7560 C   0  0  0  0  0  0  0  0  0  0  0  0
   58.5420   58.8820  118.6240 C   0  0  0  0  0  0  0  0  0  0  0  0
   59.7490   58.3850  117.8780 C   0  0  0  0  0  0  0  0  0  0  0  0
   60.0180   58.6540  116.7210 O   0  0  0  0  0  0  0  0  0  0  0  0
   60.7860   57.3360  118.8140 S   0  0  0  0  0  0  0  0  0  0  0  0
   60.3960   57.8930  120.5080 C   0  0  0  0  0  0  0  0  0  0  0  0
   60.9560   59.2390  121.0000 C   0  0  2  0  0  0  0  0  0  0  0  0
   59.7670   60.0200  122.1500 S   0  0  0  0  0  0  0  0  0  0  0  0
   61.2050   60.0850  119.8540 O   0  0  0  0  0  0  0  0  0  0  0  0
   60.6740   60.3150  123.0980 H   0  0  0  0  0  0  0  0  0  0  0  0
   62.3260   59.5380  119.0810 O   0  0  0  0  0  0  0  0  0  0  0  0
   53.0850   60.4150  118.1170 H   0  0  0  0  0  0  0  0  0  0  0  0
   57.5500   59.0170  116.7270 H   0  0  0  0  0  0  0  0  0  0  0  0
   56.9950   57.6970  117.7370 H   0  0  0  0  0  0  0  0  0  0  0  0
   60.7220   57.1010  121.1910 H   0  0  0  0  0  0  0  0  0  0  0  0
   59.3100   57.9130  120.6060 H   0  0  0  0  0  0  0  0  0  0  0  0
   61.8920   59.0860  121.5400 H   0  0  0  0  0  0  0  0  0  0  0  0
   61.8180   59.3390  118.2670 H   0  0  0  0  0  0  0  0  0  0  0  0
   58.7230   59.9280  118.8890 H   0  0  0  0  0  0  0  0  0  0  0  0
   58.4130   58.3030  119.5430 H   0  0  0  0  0  0  0  0  0  0  0  0
   55.5020   63.0420  120.3170 C   0  0  0  0  0  0  0  0  0  0  0  0
   56.9250   62.8090  120.0050 C   0  0  0  0  0  0  0  0  0  0  0  0
   58.0780   62.6320  119.7110 C   0  0  0  0  0  0  0  0  0  0  0  0
   59.1020   62.4800  119.4470 H   0  0  0  0  0  0  0  0  0  0  0  0
   54.6710   62.5600  119.2130 N   0  0  0  0  0  0  0  0  0  0  0  0
   55.2300   62.5280  121.2470 H   0  0  0  0  0  0  0  0  0  0  0  0
   53.3640   63.1970  119.0310 C   0  0  0  0  0  0  0  0  0  0  0  0
   53.1470   63.3980  117.9730 H   0  0  0  0  0  0  0  0  0  0  0  0
   52.5590   62.5420  119.3860 H   0  0  0  0  0  0  0  0  0  0  0  0
   53.3180   64.1450  119.5780 H   0  0  0  0  0  0  0  0  0  0  0  0
   54.2500   57.9310  116.0360 O   0  0  0  0  0  0  0  0  0  0  0  0
   54.7440   57.0950  115.9130 H   0  0  0  0  0  0  0  0  0  0  0  0
   54.5450   58.1590  117.4310 N   0  0  0  0  0  0  0  0  0  0  0  0
   57.1640   61.3070  118.8710 H   0  0  0  0  0  0  0  0  0  0  0  0
   56.6500   61.3270  117.1460 H   0  0  0  0  0  0  0  0  0  0  0  0
   55.2470   59.7920  116.3940 H   0  0  0  0  0  0  0  0  0  0  0  0
   55.3190   64.1020  120.5140 H   0  0  0  0  0  0  0  0  0  0  0  0
   53.6130   58.1920  117.8350 H   0  0  0  0  0  0  0  0  0  0  0  0
   56.2000   59.5630  118.2600 N   0  0  0  0  0  0  0  0  0  0  0  0
   56.4040   60.9910  118.1560 C   0  0  0  0  0  0  0  0  0  0  0  0
   54.9900   61.4220  118.5290 C   0  0  0  0  0  0  0  0  0  0  0  0
   54.1590   60.4680  118.0530 C   0  0  0  0  0  0  0  0  0  0  0  0
   55.0500   59.4820  117.4130 C   0  0  2  0  0  0  0  0  0  0  0  0
  1  2  1  0
  2  3  1  0
  3  5  1  0
  4  3  2  0
  5  6  1  0
  7  9  1  0
  8  7  1  0
  8 10  1  0
 11  9  1  0
  7  6  1  0
 13  1  1  0
 14  1  1  0
  6 15  1  0
  6 16  1  0
  7 17  1  1
 11 18  1  0
  2 19  1  0
  2 20  1  0
 21 25  1  0
 22 23  3  0
 22 21  1  0
 23 24  1  0
 21 26  1  0
 27 25  1  0
 27 28  1  0
 27 29  1  0
 27 30  1  0
 32 31  1  0
 33 31  1  0
 21 37  1  0
 33 38  1  0
 39 40  1  0
 39 43  1  0
 39  1  1  0
 40 41  1  0
 40 34  1  0
 40 35  1  0
 41 42  2  0
 41 25  1  0
 42 43  1  0
 42 12  1  0
 43 33  1  0
 43 36  1  6
A    1
 C1 
A    2
 C2 
A    3
 C3 
A    4
 O1 
A    5
 S1 
A    6
 C4 
A    7
 C10
A    8
 S2 
A    9
 O2 
A   10
 H3 
A   11
 O3 
A   12
 H4 
A   13
 H5 
A   14
 H6 
A   15
 H7 
A   16
 H8 
A   17
 H10
A   18
 H11
A   19
 H11
A   20
 H12
A   21
 C7 
A   22
 C8 
A   23
 C9 
A   24
 H1 
A   25
 H2 
A   26
 H9 
A   27
 C11
A   28
 H16
A   29
 H17
A   30
 H18
A   31
 H14
A   32
 H16
A   33
 N3 
A   34
 H17
A   35
 H18
A   36
 H19
A   37
 H20
A   38
 H21
M  END
