fraglig_862_min_6PQL_A_2.97761_rhidx
     RDKit          3D

  8  7  0  0  0  0  0  0  0  0999 V2000
   56.6900   58.7200  117.6700 C   0  0  0  0  0  0  0  0  0  0  0  0
   57.8600   58.5400  117.7900 C   0  0  0  0  0  0  0  0  0  0  0  0
   59.3000   58.3500  117.9300 C   0  0  0  0  0  0  0  0  0  0  0  0
   60.1100   59.1500  117.5000 O   0  0  0  0  0  0  0  0  0  0  0  0
   59.7600   56.9900  119.0000 S   0  0  0  0  0  0  0  0  0  0  0  0
   61.3900   57.3700  119.1500 C   0  0  0  0  0  0  0  0  0  0  0  0
   55.5000   58.9100  117.5700 C   0  0  0  0  0  0  0  0  0  0  0  0
   54.3300   59.1100  117.4600 C   0  0  0  0  0  0  0  0  0  0  0  0
  1  2  3  0
  2  3  1  0
  3  5  1  0
  4  3  2  0
  5  6  1  0
  7  1  1  0
  8  7  3  0
M  END
