LIG
     RDKit          3D

 26 25  0  0  0  0  0  0  0  0999 V2000
   56.7370   58.0440  117.3190 C   0  0  0  0  0  0  0  0  0  0  0  0
   57.8760   58.6100  118.1410 C   0  0  0  0  0  0  0  0  0  0  0  0
   59.2310   58.1920  117.6760 C   0  0  0  0  0  0  0  0  0  0  0  0
   59.9080   58.8210  116.8830 O   0  0  0  0  0  0  0  0  0  0  0  0
   59.8040   56.7300  118.4320 S   0  0  0  0  0  0  0  0  0  0  0  0
   61.0130   57.5890  119.4610 C   0  0  0  0  0  0  0  0  0  0  0  0
   55.6390   59.0800  117.3150 C   0  0  0  0  0  0  0  0  0  0  0  0
   54.2610   58.6670  116.9150 C   0  0  0  0  0  0  0  0  0  0  0  0
   55.6440   59.9500  118.5200 C   0  0  0  0  0  0  0  0  0  0  0  0
   56.3660   61.1490  118.2010 C   0  0  0  0  0  0  0  0  0  0  0  0
   57.0020   62.0920  117.9000 C   0  0  0  0  0  0  0  0  0  0  0  0
   57.6030   62.9110  117.6080 H   0  0  0  0  0  0  0  0  0  0  0  0
   54.6170   60.1820  118.8280 H   0  0  0  0  0  0  0  0  0  0  0  0
   60.5900   58.9860  119.8660 C   0  0  1  0  0  0  0  0  0  0  0  0
   60.9100   59.2710  121.6380 S   0  0  0  0  0  0  0  0  0  0  0  0
   61.3220   59.9450  119.0870 O   0  0  0  0  0  0  0  0  0  0  0  0
   60.0910   60.3190  121.7690 H   0  0  0  0  0  0  0  0  0  0  0  0
   62.6060   59.3470  118.7910 O   0  0  0  0  0  0  0  0  0  0  0  0
   53.6050   59.5240  116.7360 H   0  0  0  0  0  0  0  0  0  0  0  0
   56.3900   57.1130  117.7620 H   0  0  0  0  0  0  0  0  0  0  0  0
   57.0720   57.8290  116.2990 H   0  0  0  0  0  0  0  0  0  0  0  0
   61.1830   56.9880  120.3570 H   0  0  0  0  0  0  0  0  0  0  0  0
   61.9660   57.6320  118.9270 H   0  0  0  0  0  0  0  0  0  0  0  0
   56.1200   59.4380  119.3610 H   0  0  0  0  0  0  0  0  0  0  0  0
   59.5180   59.1490  119.7120 H   0  0  0  0  0  0  0  0  0  0  0  0
   62.3200   58.9100  117.9690 H   0  0  0  0  0  0  0  0  0  0  0  0
  1  2  1  0
  2  3  1  0
  3  5  1  0
  4  3  2  0
  5  6  1  0
  7  1  1  0
  8  7  1  0
  9 13  1  0
 10 11  3  0
 10  9  1  0
 11 12  1  0
  9  7  1  0
 14 16  1  0
 15 14  1  0
 15 17  1  0
 18 16  1  0
 14  6  1  0
 19  8  1  0
 20  1  1  0
 21  1  1  0
  6 22  1  0
  6 23  1  0
  9 24  1  0
 14 25  1  1
 18 26  1  0
A    1
 C1 
A    2
 C2 
A    3
 C3 
A    4
 O1 
A    5
 S1 
A    6
 C4 
A    7
 C5 
A    8
 C6 
A    9
 C7 
A   10
 C8 
A   11
 C9 
A   12
 H1 
A   13
 H2 
A   14
 C10
A   15
 S2 
A   16
 O2 
A   17
 H3 
A   18
 O3 
A   19
 H4 
A   20
 H5 
A   21
 H6 
A   22
 H7 
A   23
 H8 
A   24
 H9 
A   25
 H10
A   26
 H11
M  END
