LIG
     RDKit          3D

 26 25  0  0  0  0  0  0  0  0999 V2000
   56.6900   58.7200  117.6700 C   0  0  0  0  0  0  0  0  0  0  0  0
   57.8600   58.5400  117.7900 C   0  0  0  0  0  0  0  0  0  0  0  0
   59.3000   58.3500  117.9300 C   0  0  0  0  0  0  0  0  0  0  0  0
   60.1100   59.1500  117.5000 O   0  0  0  0  0  0  0  0  0  0  0  0
   59.7600   56.9900  119.0000 S   0  0  0  0  0  0  0  0  0  0  0  0
   61.3900   57.3700  119.1500 C   0  0  0  0  0  0  0  0  0  0  0  0
   55.5000   58.9100  117.5700 C   0  0  0  0  0  0  0  0  0  0  0  0
   54.3300   59.1100  117.4600 C   0  0  0  0  0  0  0  0  0  0  0  0
   56.0805   59.0577  118.1954 C   0  0  0  0  0  0  0  0  0  0  0  0
   56.0563   60.5141  117.9532 C   0  0  0  0  0  0  0  0  0  0  0  0
   55.9437   61.6966  117.7743 C   0  0  0  0  0  0  0  0  0  0  0  0
   55.7891   62.7402  117.6220 H   0  0  0  0  0  0  0  0  0  0  0  0
   56.1708   58.8933  119.2773 H   0  0  0  0  0  0  0  0  0  0  0  0
   61.0330   58.2421  119.2347 C   0  0  1  0  0  0  0  0  0  0  0  0
   60.6954   59.1044  120.8165 S   0  0  0  0  0  0  0  0  0  0  0  0
   61.5068   59.0857  118.1812 O   0  0  0  0  0  0  0  0  0  0  0  0
   60.1867   60.2030  120.2337 H   0  0  0  0  0  0  0  0  0  0  0  0
   62.8100   59.4897  118.5414 O   0  0  0  0  0  0  0  0  0  0  0  0
   52.8133   57.7409  116.9401 H   0  0  0  0  0  0  0  0  0  0  0  0
   57.0881   57.2604  117.5586 H   0  0  0  0  0  0  0  0  0  0  0  0
   57.2780   58.5874  116.4179 H   0  0  0  0  0  0  0  0  0  0  0  0
   62.3674   56.8654  119.1498 H   0  0  0  0  0  0  0  0  0  0  0  0
   61.4590   57.5041  118.0604 H   0  0  0  0  0  0  0  0  0  0  0  0
   56.8153   58.2481  118.0749 H   0  0  0  0  0  0  0  0  0  0  0  0
   59.9719   57.9619  119.1599 H   0  0  0  0  0  0  0  0  0  0  0  0
   63.7243   59.7731  118.7941 H   0  0  0  0  0  0  0  0  0  0  0  0
  1  2  1  0
  2  3  1  0
  3  5  1  0
  4  3  2  0
  5  6  1  0
  7  1  1  0
  8  7  1  0
  9 13  1  0
 10 11  3  0
 10  9  1  0
 11 12  1  0
  9  7  1  0
 14 16  1  0
 15 14  1  0
 15 17  1  0
 18 16  1  0
 14  6  1  0
 19  8  1  0
 20  1  1  0
 21  1  1  0
  6 22  1  0
  6 23  1  0
  9 24  1  0
 14 25  1  6
 18 26  1  0
M  END
