LIG
     RDKit          3D

 26 25  0  0  0  0  0  0  0  0999 V2000
    1.4596    0.0270    0.7495 C   0  0  0  0  0  0  0  0  0  0  0  0
    0.3301   -0.9028    1.1606 C   0  0  0  0  0  0  0  0  0  0  0  0
   -0.8135   -0.8261    0.1936 C   0  0  0  0  0  0  0  0  0  0  0  0
   -0.8426   -1.4173   -0.8763 O   0  0  0  0  0  0  0  0  0  0  0  0
   -2.1390    0.1648    0.7746 S   0  0  0  0  0  0  0  0  0  0  0  0
   -3.1271    0.3003   -0.7603 C   0  0  0  0  0  0  0  0  0  0  0  0
    2.5946   -0.0561    1.7595 C   0  0  0  0  0  0  0  0  0  0  0  0
    3.1330   -1.4578    1.9584 C   0  0  0  0  0  0  0  0  0  0  0  0
    3.6808    1.0008    1.6044 C   0  0  0  0  0  0  0  0  0  0  0  0
    4.4244    0.8830    0.3425 C   0  0  0  0  0  0  0  0  0  0  0  0
    5.0359    0.7963   -0.6879 C   0  0  0  0  0  0  0  0  0  0  0  0
    5.5796    0.7221   -1.6013 H   0  0  0  0  0  0  0  0  0  0  0  0
    3.2260    1.9967    1.6741 H   0  0  0  0  0  0  0  0  0  0  0  0
   -3.9170   -0.9545   -1.1703 C   0  0  1  0  0  0  0  0  0  0  0  0
   -5.1232   -1.4634    0.1125 S   0  0  0  0  0  0  0  0  0  0  0  0
   -4.6313   -0.6664   -2.3851 O   0  0  0  0  0  0  0  0  0  0  0  0
   -4.2289   -1.5799    1.1043 H   0  0  0  0  0  0  0  0  0  0  0  0
   -3.6785   -0.8161   -3.4791 O   0  0  0  0  0  0  0  0  0  0  0  0
    3.5901   -1.8577    1.0493 H   0  0  0  0  0  0  0  0  0  0  0  0
    1.8162   -0.2397   -0.2523 H   0  0  0  0  0  0  0  0  0  0  0  0
    1.0838    1.0559    0.7092 H   0  0  0  0  0  0  0  0  0  0  0  0
   -3.8201    1.1398   -0.6294 H   0  0  0  0  0  0  0  0  0  0  0  0
   -2.4628    0.6110   -1.5757 H   0  0  0  0  0  0  0  0  0  0  0  0
    4.3753    0.9345    2.4513 H   0  0  0  0  0  0  0  0  0  0  0  0
   -3.2608   -1.8125   -1.3446 H   0  0  0  0  0  0  0  0  0  0  0  0
   -4.0897   -1.6058   -3.8765 H   0  0  0  0  0  0  0  0  0  0  0  0
  1  2  1  0
  2  3  1  0
  3  5  1  0
  4  3  2  0
  5  6  1  0
  7  1  1  0
  8  7  1  0
  9 13  1  0
 10 11  3  0
 10  9  1  0
 11 12  1  0
  9  7  1  0
 14 16  1  0
 15 14  1  0
 15 17  1  0
 18 16  1  0
 14  6  1  0
 19  8  1  0
 20  1  1  0
 21  1  1  0
  6 22  1  0
  6 23  1  0
  9 24  1  0
 14 25  1  6
 18 26  1  0
M  END
