LIG
     RDKit          3D

 33 32  0  0  0  0  0  0  0  0999 V2000
   57.0100   58.7590  117.5340 C   0  0  0  0  0  0  0  0  0  0  0  0
   58.3330   59.1550  118.1570 C   0  0  0  0  0  0  0  0  0  0  0  0
   59.5240   58.3790  117.7030 C   0  0  0  0  0  0  0  0  0  0  0  0
   60.1730   58.7040  116.7230 O   0  0  0  0  0  0  0  0  0  0  0  0
   59.9470   56.9760  118.6800 S   0  0  0  0  0  0  0  0  0  0  0  0
   61.0930   57.8050  119.8140 C   0  0  0  0  0  0  0  0  0  0  0  0
   55.9550   59.9030  117.5350 C   0  0  1  0  0  0  0  0  0  0  0  0
   54.5820   59.7490  116.8760 C   0  0  0  0  0  0  0  0  0  0  0  0
   55.7670   60.5000  118.9090 C   0  0  1  0  0  0  0  0  0  0  0  0
   56.7260   61.5870  118.9610 C   0  0  0  0  0  0  0  0  0  0  0  0
   57.5680   62.4150  118.9830 C   0  0  0  0  0  0  0  0  0  0  0  0
   58.3440   63.1430  119.0190 H   0  0  0  0  0  0  0  0  0  0  0  0
   54.4160   60.9470  119.0330 O   0  0  0  0  0  0  0  0  0  0  0  0
   60.5940   59.1690  120.2730 C   0  0  1  0  0  0  0  0  0  0  0  0
   60.9230   59.3870  122.0600 S   0  0  0  0  0  0  0  0  0  0  0  0
   61.2560   60.1960  119.5050 O   0  0  0  0  0  0  0  0  0  0  0  0
   61.1770   60.7070  122.0020 H   0  0  0  0  0  0  0  0  0  0  0  0
   62.4450   59.6130  118.8880 O   0  0  0  0  0  0  0  0  0  0  0  0
   53.8150   59.4700  117.6050 H   0  0  0  0  0  0  0  0  0  0  0  0
   56.6630   57.8970  118.0840 H   0  0  0  0  0  0  0  0  0  0  0  0
   57.1860   58.4100  116.5150 H   0  0  0  0  0  0  0  0  0  0  0  0
   61.2750   57.1670  120.6850 H   0  0  0  0  0  0  0  0  0  0  0  0
   62.0560   57.9260  119.3020 H   0  0  0  0  0  0  0  0  0  0  0  0
   55.9820   59.7540  119.6830 H   0  0  0  0  0  0  0  0  0  0  0  0
   59.5160   59.2450  120.1090 H   0  0  0  0  0  0  0  0  0  0  0  0
   61.9960   59.3340  118.0600 H   0  0  0  0  0  0  0  0  0  0  0  0
   54.1010   61.8860  118.0070 C   0  0  0  0  0  0  0  0  0  0  0  0
   58.5250   60.2170  117.9540 H   0  0  0  0  0  0  0  0  0  0  0  0
   58.2780   59.0710  119.2460 H   0  0  0  0  0  0  0  0  0  0  0  0
   56.4210   60.6980  116.9410 H   0  0  0  0  0  0  0  0  0  0  0  0
   54.5900   59.0400  116.0560 H   0  0  0  0  0  0  0  0  0  0  0  0
   54.2590   60.7090  116.4720 H   0  0  0  0  0  0  0  0  0  0  0  0
   55.0280   62.3560  117.6620 H   0  0  0  0  0  0  0  0  0  0  0  0
  1  2  1  0
  2  3  1  0
  3  5  1  0
  4  3  2  0
  5  6  1  0
  7  1  1  0
  8  7  1  0
  9 13  1  0
 10 11  3  0
 10  9  1  0
 11 12  1  0
  9  7  1  0
 14 16  1  0
 15 14  1  0
 15 17  1  0
 18 16  1  0
 14  6  1  0
 19  8  1  0
 20  1  1  0
 21  1  1  0
  6 22  1  0
  6 23  1  0
  9 24  1  1
 14 25  1  1
 18 26  1  0
 27 13  1  0
  2 28  1  0
  2 29  1  0
  7 30  1  6
  8 31  1  0
  8 32  1  0
 27 33  1  0
A    1
 C1 
A    2
 C2 
A    3
 C3 
A    4
 O1 
A    5
 S1 
A    6
 C4 
A    7
 C5 
A    8
 C6 
A    9
 C7 
A   10
 C8 
A   11
 C9 
A   12
 H1 
A   13
 H2 
A   14
 C10
A   15
 S2 
A   16
 O2 
A   17
 H3 
A   18
 O3 
A   19
 H4 
A   20
 H5 
A   21
 H6 
A   22
 H7 
A   23
 H8 
A   24
 H9 
A   25
 H10
A   26
 H11
A   27
 C11
A   28
 H11
A   29
 H12
A   30
 H13
A   31
 H14
A   32
 H15
A   33
 H16
M  END
