seed_0
     RDKit          3D

 31 30  0  0  0  0  0  0  0  0999 V2000
   -1.0812   -0.5089    0.2933 C   0  0  0  0  0  0  0  0  0  0  0  0
   -0.2740   -0.2343   -0.9785 C   0  0  0  0  0  0  0  0  0  0  0  0
    1.2161   -0.3677   -0.7371 C   0  0  0  0  0  0  0  0  0  0  0  0
    1.7215   -0.7477    0.3107 O   0  0  0  0  0  0  0  0  0  0  0  0
    2.2034    0.0676   -2.1330 S   0  0  0  0  0  0  0  0  0  0  0  0
    3.8691   -0.2788   -1.4473 C   0  0  0  0  0  0  0  0  0  0  0  0
   -2.5914   -0.2273    0.1428 C   0  0  1  0  0  0  0  0  0  0  0  0
   -3.2321   -1.1389   -0.9116 C   0  0  0  0  0  0  0  0  0  0  0  0
   -3.2809   -0.3979    1.5124 C   0  0  0  0  0  0  0  0  0  0  0  0
   -4.6531    0.1359    1.5161 C   0  0  0  0  0  0  0  0  0  0  0  0
   -5.7722    0.5713    1.5258 C   0  0  0  0  0  0  0  0  0  0  0  0
   -6.7656    0.9570    1.5357 H   0  0  0  0  0  0  0  0  0  0  0  0
   -3.2924   -1.4560    1.8003 H   0  0  0  0  0  0  0  0  0  0  0  0
    4.3350    0.7892   -0.4465 C   0  0  1  0  0  0  0  0  0  0  0  0
    5.8475    0.1955    0.3936 S   0  0  0  0  0  0  0  0  0  0  0  0
    4.6056    2.0014   -1.1703 O   0  0  0  0  0  0  0  0  0  0  0  0
    5.2325   -0.7252    1.1495 H   0  0  0  0  0  0  0  0  0  0  0  0
    4.3764    3.1035   -0.2406 O   0  0  0  0  0  0  0  0  0  0  0  0
   -2.8101   -0.9556   -1.9043 H   0  0  0  0  0  0  0  0  0  0  0  0
   -0.9258   -1.5495    0.6070 H   0  0  0  0  0  0  0  0  0  0  0  0
   -0.6836    0.1178    1.1026 H   0  0  0  0  0  0  0  0  0  0  0  0
    3.8526   -1.2811   -1.0051 H   0  0  0  0  0  0  0  0  0  0  0  0
    4.5473   -0.3062   -2.3082 H   0  0  0  0  0  0  0  0  0  0  0  0
   -2.7074    0.1322    2.2828 H   0  0  0  0  0  0  0  0  0  0  0  0
    3.5788    0.9760    0.3230 H   0  0  0  0  0  0  0  0  0  0  0  0
    3.8220    3.6358   -0.8392 H   0  0  0  0  0  0  0  0  0  0  0  0
   -0.5512   -0.9450   -1.7642 H   0  0  0  0  0  0  0  0  0  0  0  0
   -0.4827    0.7829   -1.3293 H   0  0  0  0  0  0  0  0  0  0  0  0
   -2.7155    0.8132   -0.1868 H   0  0  0  0  0  0  0  0  0  0  0  0
   -4.3098   -0.9638   -0.9902 H   0  0  0  0  0  0  0  0  0  0  0  0
   -3.0788   -2.1952   -0.6660 H   0  0  0  0  0  0  0  0  0  0  0  0
  1  2  1  0
  2  3  1  0
  3  5  1  0
  4  3  2  0
  5  6  1  0
  6 22  1  0
  6 23  1  0
  7  1  1  0
  7  8  1  0
  9 13  1  0
  9  7  1  0
  9 24  1  0
 10 11  3  0
 10  9  1  0
 11 12  1  0
 14 16  1  0
 14  6  1  0
 14 25  1  1
 15 14  1  0
 15 17  1  0
 18 16  1  0
 18 26  1  0
 19  8  1  0
 20  1  1  0
 21  1  1  0
  2 27  1  0
  2 28  1  0
  7 29  1  6
  8 30  1  0
  8 31  1  0
A    1
 C1 
A    2
 C2 
A    3
 C3 
A    4
 O1 
A    5
 S1 
A    6
 C4 
A    7
 C5 
A    8
 C6 
A    9
 C7 
A   10
 C8 
A   11
 C9 
A   12
 H1 
A   13
 H2 
A   14
 C10
A   15
 S2 
A   16
 O2 
A   17
 H3 
A   18
 O3 
A   19
 H4 
A   20
 H5 
A   21
 H6 
A   22
 H7 
A   23
 H8 
A   24
 H9 
A   25
 H10
A   26
 H11
M  END
$$$$
seed_1
     RDKit          3D

 35 34  0  0  0  0  0  0  0  0999 V2000
   -0.7174    0.7295    0.0846 C   0  0  0  0  0  0  0  0  0  0  0  0
    0.1462   -0.2485   -0.7144 C   0  0  0  0  0  0  0  0  0  0  0  0
    1.0785    0.4707   -1.6675 C   0  0  0  0  0  0  0  0  0  0  0  0
    1.0804    1.6735   -1.8824 O   0  0  0  0  0  0  0  0  0  0  0  0
    2.1929   -0.5839   -2.5268 S   0  0  0  0  0  0  0  0  0  0  0  0
    3.6488   -0.4797   -1.4284 C   0  0  0  0  0  0  0  0  0  0  0  0
   -1.5186    0.0666    1.2310 C   0  0  1  0  0  0  0  0  0  0  0  0
   -2.2387    1.1793    2.0129 C   0  0  0  0  0  0  0  0  0  0  0  0
   -2.4991   -1.0222    0.7221 C   0  0  1  0  0  0  0  0  0  0  0  0
   -3.1735   -1.7043    1.8455 C   0  0  0  0  0  0  0  0  0  0  0  0
   -3.7228   -2.2648    2.7551 C   0  0  0  0  0  0  0  0  0  0  0  0
   -4.2167   -2.7543    3.5627 H   0  0  0  0  0  0  0  0  0  0  0  0
   -3.4554   -0.4109   -0.1495 O   0  0  0  0  0  0  0  0  0  0  0  0
    4.1690    0.9336   -1.1056 C   0  0  1  0  0  0  0  0  0  0  0  0
    3.5225    1.5224    0.5064 S   0  0  0  0  0  0  0  0  0  0  0  0
    5.6046    0.8532   -1.0245 O   0  0  0  0  0  0  0  0  0  0  0  0
    4.2136    0.6523    1.2559 H   0  0  0  0  0  0  0  0  0  0  0  0
    6.1157    2.1844   -1.3421 O   0  0  0  0  0  0  0  0  0  0  0  0
   -2.9698    1.7026    1.3876 H   0  0  0  0  0  0  0  0  0  0  0  0
   -0.0675    1.5024    0.5163 H   0  0  0  0  0  0  0  0  0  0  0  0
   -1.3974    1.2544   -0.5989 H   0  0  0  0  0  0  0  0  0  0  0  0
    4.4354   -1.0376   -1.9509 H   0  0  0  0  0  0  0  0  0  0  0  0
    3.4420   -1.0558   -0.5188 H   0  0  0  0  0  0  0  0  0  0  0  0
   -1.9298   -1.7740    0.1626 H   0  0  0  0  0  0  0  0  0  0  0  0
    3.8960    1.6420   -1.8959 H   0  0  0  0  0  0  0  0  0  0  0  0
    6.2146    2.4936   -0.4222 H   0  0  0  0  0  0  0  0  0  0  0  0
   -4.1206   -1.3419   -0.9929 C   0  0  0  0  0  0  0  0  0  0  0  0
    0.7473   -0.8514   -0.0242 H   0  0  0  0  0  0  0  0  0  0  0  0
   -0.4882   -0.9156   -1.3075 H   0  0  0  0  0  0  0  0  0  0  0  0
   -0.8012   -0.4054    1.9166 H   0  0  0  0  0  0  0  0  0  0  0  0
   -2.7612    0.7822    2.8885 H   0  0  0  0  0  0  0  0  0  0  0  0
   -1.5193    1.9212    2.3771 H   0  0  0  0  0  0  0  0  0  0  0  0
   -4.8090   -0.7873   -1.6364 H   0  0  0  0  0  0  0  0  0  0  0  0
   -4.7009   -2.0607   -0.4074 H   0  0  0  0  0  0  0  0  0  0  0  0
   -3.4003   -1.8659   -1.6286 H   0  0  0  0  0  0  0  0  0  0  0  0
  1  2  1  0
  2  3  1  0
  2 28  1  0
  2 29  1  0
  3  5  1  0
  4  3  2  0
  5  6  1  0
  6 22  1  0
  6 23  1  0
  7  1  1  0
  7 30  1  1
  8  7  1  0
  8 31  1  0
  8 32  1  0
  9 13  1  0
  9  7  1  0
  9 24  1  6
 10 11  3  0
 10  9  1  0
 11 12  1  0
 14 16  1  0
 14  6  1  0
 14 25  1  6
 15 14  1  0
 15 17  1  0
 18 16  1  0
 18 26  1  0
 19  8  1  0
 20  1  1  0
 21  1  1  0
 27 13  1  0
 27 33  1  0
 27 34  1  0
 27 35  1  0
A    1
 C1 
A    2
 C2 
A    3
 C3 
A    4
 O1 
A    5
 S1 
A    6
 C4 
A    7
 C5 
A    8
 C6 
A    9
 C7 
A   10
 C8 
A   11
 C9 
A   12
 H1 
A   13
 H2 
A   14
 C10
A   15
 S2 
A   16
 O2 
A   17
 H3 
A   18
 O3 
A   19
 H4 
A   20
 H5 
A   21
 H6 
A   22
 H7 
A   23
 H8 
A   24
 H9 
A   25
 H10
A   26
 H11
A   27
 C11
A   28
 H11
A   29
 H12
A   30
 H13
A   31
 H14
A   32
 H15
A   33
 H16
M  END
$$$$
seed_2
     RDKit          3D

 36 35  0  0  0  0  0  0  0  0999 V2000
   -0.5598   -0.7685    0.8802 C   0  0  0  0  0  0  0  0  0  0  0  0
    0.2422   -0.1779   -0.2774 C   0  0  0  0  0  0  0  0  0  0  0  0
    1.7219   -0.1927    0.0355 C   0  0  0  0  0  0  0  0  0  0  0  0
    2.4530   -1.1406   -0.2236 O   0  0  0  0  0  0  0  0  0  0  0  0
    2.3196    1.2467    0.8544 S   0  0  0  0  0  0  0  0  0  0  0  0
    4.1019    0.8458    0.9266 C   0  0  0  0  0  0  0  0  0  0  0  0
   -2.0356   -1.1103    0.5574 C   0  0  1  0  0  0  0  0  0  0  0  0
   -2.6216   -1.8861    1.7558 C   0  0  0  0  0  0  0  0  0  0  0  0
   -2.8945    0.1460    0.2245 C   0  0  1  0  0  0  0  0  0  0  0  0
   -2.6761    0.5872   -1.1681 C   0  0  0  0  0  0  0  0  0  0  0  0
   -2.5193    0.9480   -2.3035 C   0  0  0  0  0  0  0  0  0  0  0  0
   -2.3896    1.2629   -3.3136 H   0  0  0  0  0  0  0  0  0  0  0  0
   -4.2863   -0.1790    0.3833 O   0  0  0  0  0  0  0  0  0  0  0  0
    4.8450    0.8563   -0.4190 C   0  0  1  0  0  0  0  0  0  0  0  0
    4.9368    2.5363   -1.1330 S   0  0  0  0  0  0  0  0  0  0  0  0
    6.1695    0.3431   -0.1765 O   0  0  0  0  0  0  0  0  0  0  0  0
    5.9238    2.2334   -1.9895 H   0  0  0  0  0  0  0  0  0  0  0  0
    6.7054   -0.0612   -1.4752 O   0  0  0  0  0  0  0  0  0  0  0  0
   -2.8218   -1.2200    2.6023 H   0  0  0  0  0  0  0  0  0  0  0  0
   -0.5227   -0.0826    1.7366 H   0  0  0  0  0  0  0  0  0  0  0  0
   -0.0543   -1.6856    1.2123 H   0  0  0  0  0  0  0  0  0  0  0  0
    4.2179   -0.1344    1.4054 H   0  0  0  0  0  0  0  0  0  0  0  0
    4.5761    1.5526    1.6190 H   0  0  0  0  0  0  0  0  0  0  0  0
   -2.6330    0.9475    0.9272 H   0  0  0  0  0  0  0  0  0  0  0  0
    4.3537    0.2003   -1.1443 H   0  0  0  0  0  0  0  0  0  0  0  0
    6.7599   -1.0154   -1.2803 H   0  0  0  0  0  0  0  0  0  0  0  0
   -5.1086    0.9716    0.5552 C   0  0  0  0  0  0  0  0  0  0  0  0
    0.0974   -0.7694   -1.1891 H   0  0  0  0  0  0  0  0  0  0  0  0
   -0.0698    0.8464   -0.5026 H   0  0  0  0  0  0  0  0  0  0  0  0
   -2.0614   -1.7900   -0.3063 H   0  0  0  0  0  0  0  0  0  0  0  0
   -3.8277   -2.5529    1.4052 O   0  0  0  0  0  0  0  0  0  0  0  0
   -1.9262   -2.6594    2.0977 H   0  0  0  0  0  0  0  0  0  0  0  0
   -5.0645    1.6235   -0.3218 H   0  0  0  0  0  0  0  0  0  0  0  0
   -4.3991   -1.8788    0.9803 H   0  0  0  0  0  0  0  0  0  0  0  0
   -6.1409    0.6347    0.6830 H   0  0  0  0  0  0  0  0  0  0  0  0
   -4.8111    1.5227    1.4524 H   0  0  0  0  0  0  0  0  0  0  0  0
  1  2  1  0
  2  3  1  0
  2 28  1  0
  2 29  1  0
  3  5  1  0
  4  3  2  0
  5  6  1  0
  6 22  1  0
  6 23  1  0
  7  1  1  0
  7 30  1  6
  8  7  1  0
  8 31  1  0
  8 32  1  0
  9 13  1  0
  9  7  1  0
  9 24  1  1
 10 11  3  0
 10  9  1  0
 11 12  1  0
 14 16  1  0
 14  6  1  0
 14 25  1  6
 15 14  1  0
 15 17  1  0
 18 16  1  0
 18 26  1  0
 19  8  1  0
 20  1  1  0
 21  1  1  0
 27 13  1  0
 27 33  1  0
 27 35  1  0
 27 36  1  0
 34 31  1  0
A    1
 C1 
A    2
 C2 
A    3
 C3 
A    4
 O1 
A    5
 S1 
A    6
 C4 
A    7
 C5 
A    8
 C6 
A    9
 C7 
A   10
 C8 
A   11
 C9 
A   12
 H1 
A   13
 H2 
A   14
 C10
A   15
 S2 
A   16
 O2 
A   17
 H3 
A   18
 O3 
A   19
 H4 
A   20
 H5 
A   21
 H6 
A   22
 H7 
A   23
 H8 
A   24
 H9 
A   25
 H10
A   26
 H11
A   27
 C11
A   28
 H11
A   29
 H12
A   30
 H13
A   31
 H14
A   32
 H15
A   33
 H16
A   34
 H16
A   35
 H17
A   36
 H18
M  END
$$$$
seed_8
     RDKit          3D

 43 43  0  0  0  0  0  0  0  0999 V2000
   -0.4244    0.0061   -0.6374 C   0  0  0  0  0  0  0  0  0  0  0  0
   -1.1304   -0.3544    0.6679 C   0  0  0  0  0  0  0  0  0  0  0  0
   -2.5294   -0.8239    0.3609 C   0  0  0  0  0  0  0  0  0  0  0  0
   -2.7715   -1.9189   -0.1336 O   0  0  0  0  0  0  0  0  0  0  0  0
   -3.8076    0.3313    0.7332 S   0  0  0  0  0  0  0  0  0  0  0  0
   -5.2513   -0.6478    0.1856 C   0  0  0  0  0  0  0  0  0  0  0  0
   -6.5865    0.0841    0.3777 C   0  0  2  0  0  0  0  0  0  0  0  0
   -7.0045    0.2951    2.1504 S   0  0  0  0  0  0  0  0  0  0  0  0
   -7.6012   -0.6934   -0.2816 O   0  0  0  0  0  0  0  0  0  0  0  0
   -5.9068    0.9998    2.4622 H   0  0  0  0  0  0  0  0  0  0  0  0
   -8.7435    0.1956   -0.4805 O   0  0  0  0  0  0  0  0  0  0  0  0
    3.7484    1.1641   -2.1014 H   0  0  0  0  0  0  0  0  0  0  0  0
   -1.0173    0.7829   -1.1393 H   0  0  0  0  0  0  0  0  0  0  0  0
   -0.4106   -0.8562   -1.3177 H   0  0  0  0  0  0  0  0  0  0  0  0
   -5.2690   -1.6122    0.7082 H   0  0  0  0  0  0  0  0  0  0  0  0
   -5.1249   -0.8760   -0.8798 H   0  0  0  0  0  0  0  0  0  0  0  0
   -6.5412    1.0724   -0.0956 H   0  0  0  0  0  0  0  0  0  0  0  0
   -9.2411   -0.0897    0.3094 H   0  0  0  0  0  0  0  0  0  0  0  0
   -0.6189   -1.1717    1.1898 H   0  0  0  0  0  0  0  0  0  0  0  0
   -1.1457    0.5001    1.3540 H   0  0  0  0  0  0  0  0  0  0  0  0
    4.4949   -1.6754    1.0386 C   0  0  0  0  0  0  0  0  0  0  0  0
    4.6682   -0.9266    2.2930 C   0  0  0  0  0  0  0  0  0  0  0  0
    4.8048   -0.3083    3.3137 C   0  0  0  0  0  0  0  0  0  0  0  0
    4.9231    0.2499    4.2139 H   0  0  0  0  0  0  0  0  0  0  0  0
    4.4017   -0.7652   -0.1128 N   0  0  0  0  0  0  0  0  0  0  0  0
    3.6035   -2.3106    1.0990 H   0  0  0  0  0  0  0  0  0  0  0  0
    5.6887   -0.2565   -0.5944 C   0  0  0  0  0  0  0  0  0  0  0  0
    5.8675    0.7540   -0.2103 H   0  0  0  0  0  0  0  0  0  0  0  0
    5.7086   -0.2279   -1.6890 H   0  0  0  0  0  0  0  0  0  0  0  0
    6.5236   -0.8909   -0.2778 H   0  0  0  0  0  0  0  0  0  0  0  0
    1.9467    3.1016   -2.7101 O   0  0  0  0  0  0  0  0  0  0  0  0
    1.2289    3.6288   -3.1119 H   0  0  0  0  0  0  0  0  0  0  0  0
    1.2644    2.4990   -1.5753 N   0  0  0  0  0  0  0  0  0  0  0  0
    1.5758   -1.5306   -0.2076 H   0  0  0  0  0  0  0  0  0  0  0  0
    1.8936   -0.4700    1.1954 H   0  0  0  0  0  0  0  0  0  0  0  0
    1.1570    0.6144   -2.5225 H   0  0  0  0  0  0  0  0  0  0  0  0
    5.3342   -2.3675    0.9000 H   0  0  0  0  0  0  0  0  0  0  0  0
    1.7620    2.8750   -0.7659 H   0  0  0  0  0  0  0  0  0  0  0  0
    0.9284    0.5099   -0.3974 N   0  0  0  0  0  0  0  0  0  0  0  0
    1.8627   -0.5182    0.1026 C   0  0  0  0  0  0  0  0  0  0  0  0
    3.2021   -0.1781   -0.5094 C   0  0  0  0  0  0  0  0  0  0  0  0
    2.9919    0.7352   -1.4642 C   0  0  0  0  0  0  0  0  0  0  0  0
    1.5450    1.0707   -1.6018 C   0  0  2  0  0  0  0  0  0  0  0  0
  1  2  1  0
  2  3  1  0
  2 19  1  0
  2 20  1  0
  3  5  1  0
  4  3  2  0
  5  6  1  0
  6 15  1  0
  6 16  1  0
  7  9  1  0
  7  6  1  0
  7 17  1  6
  8  7  1  0
  8 10  1  0
 11  9  1  0
 11 18  1  0
 13  1  1  0
 14  1  1  0
 21 25  1  0
 21 26  1  0
 21 37  1  0
 22 23  3  0
 22 21  1  0
 23 24  1  0
 27 25  1  0
 27 28  1  0
 27 29  1  0
 27 30  1  0
 32 31  1  0
 33 31  1  0
 33 38  1  0
 39 40  1  0
 39 43  1  0
 39  1  1  0
 40 41  1  0
 40 34  1  0
 40 35  1  0
 41 42  2  0
 41 25  1  0
 42 43  1  0
 42 12  1  0
 43 33  1  0
 43 36  1  6
A    1
 C1 
A    2
 C2 
A    3
 C3 
A    4
 O1 
A    5
 S1 
A    6
 C4 
A    7
 C10
A    8
 S2 
A    9
 O2 
A   10
 H3 
A   11
 O3 
A   12
 H4 
A   13
 H5 
A   14
 H6 
A   15
 H7 
A   16
 H8 
A   17
 H10
A   18
 H11
A   19
 H11
A   20
 H12
A   21
 C7 
A   22
 C8 
A   23
 C9 
A   24
 H1 
A   25
 H2 
A   26
 H9 
A   27
 C11
A   28
 H16
A   29
 H17
A   30
 H18
A   31
 H14
A   32
 H16
A   33
 N3 
A   34
 H17
A   35
 H18
A   36
 H19
A   37
 H20
A   38
 H21
A   39
 N3 
A   40
 C10
A   41
 C11
A   42
 C12
A   43
 C13
M  END
$$$$
