LIG
     RDKit          3D

 36 35  0  0  0  0  0  0  0  0999 V2000
   56.9290   58.7400  117.6240 C   0  0  0  0  0  0  0  0  0  0  0  0
   58.1890   59.0210  118.4410 C   0  0  0  0  0  0  0  0  0  0  0  0
   59.4190   58.3550  117.8700 C   0  0  0  0  0  0  0  0  0  0  0  0
   59.9650   58.7260  116.8530 O   0  0  0  0  0  0  0  0  0  0  0  0
   60.0300   56.9750  118.7780 S   0  0  0  0  0  0  0  0  0  0  0  0
   61.0310   57.8540  120.0110 C   0  0  0  0  0  0  0  0  0  0  0  0
   55.7940   59.7910  117.6740 C   0  0  1  0  0  0  0  0  0  0  0  0
   54.4430   59.0970  117.4360 C   0  0  0  0  0  0  0  0  0  0  0  0
   55.7490   60.6730  118.9520 C   0  0  1  0  0  0  0  0  0  0  0  0
   56.8870   61.6050  119.0090 C   0  0  0  0  0  0  0  0  0  0  0  0
   57.8150   62.3630  119.0690 C   0  0  0  0  0  0  0  0  0  0  0  0
   58.6380   63.0380  119.1120 H   0  0  0  0  0  0  0  0  0  0  0  0
   54.5280   61.4330  118.9280 O   0  0  0  0  0  0  0  0  0  0  0  0
   60.5190   59.2460  120.4030 C   0  0  1  0  0  0  0  0  0  0  0  0
   60.2920   59.3890  122.2130 S   0  0  0  0  0  0  0  0  0  0  0  0
   61.4390   60.2550  119.9440 O   0  0  0  0  0  0  0  0  0  0  0  0
   61.3960   60.1350  122.4230 H   0  0  0  0  0  0  0  0  0  0  0  0
   62.3860   59.6220  119.0320 O   0  0  0  0  0  0  0  0  0  0  0  0
   54.2210   58.3580  118.2120 H   0  0  0  0  0  0  0  0  0  0  0  0
   56.5020   57.7970  117.9900 H   0  0  0  0  0  0  0  0  0  0  0  0
   57.1900   58.5270  116.5850 H   0  0  0  0  0  0  0  0  0  0  0  0
   61.0600   57.2280  120.9080 H   0  0  0  0  0  0  0  0  0  0  0  0
   62.0700   57.8950  119.6590 H   0  0  0  0  0  0  0  0  0  0  0  0
   55.7420   60.0240  119.8370 H   0  0  0  0  0  0  0  0  0  0  0  0
   59.5430   59.4530  119.9670 H   0  0  0  0  0  0  0  0  0  0  0  0
   61.7420   59.4460  118.3170 H   0  0  0  0  0  0  0  0  0  0  0  0
   54.3360   62.1600  117.7130 C   0  0  0  0  0  0  0  0  0  0  0  0
   58.3480   60.0950  118.5670 H   0  0  0  0  0  0  0  0  0  0  0  0
   58.0540   58.5970  119.4420 H   0  0  0  0  0  0  0  0  0  0  0  0
   55.9480   60.4680  116.8260 H   0  0  0  0  0  0  0  0  0  0  0  0
   54.4060   58.4340  116.1820 O   0  0  0  0  0  0  0  0  0  0  0  0
   53.6260   59.8250  117.4230 H   0  0  0  0  0  0  0  0  0  0  0  0
   55.2850   62.3520  117.2060 H   0  0  0  0  0  0  0  0  0  0  0  0
   54.9780   57.6190  116.2120 H   0  0  0  0  0  0  0  0  0  0  0  0
   53.6510   61.6260  117.0480 H   0  0  0  0  0  0  0  0  0  0  0  0
   53.8780   63.1170  117.9680 H   0  0  0  0  0  0  0  0  0  0  0  0
  1  2  1  0
  2  3  1  0
  3  5  1  0
  4  3  2  0
  5  6  1  0
  7  1  1  0
  8  7  1  0
  9 13  1  0
 10 11  3  0
 10  9  1  0
 11 12  1  0
  9  7  1  0
 14 16  1  0
 15 14  1  0
 15 17  1  0
 18 16  1  0
 14  6  1  0
 19  8  1  0
 20  1  1  0
 21  1  1  0
  6 22  1  0
  6 23  1  0
  9 24  1  1
 14 25  1  6
 18 26  1  0
 27 13  1  0
  2 28  1  0
  2 29  1  0
  7 30  1  6
  8 31  1  0
  8 32  1  0
 27 33  1  0
 34 31  1  0
 27 35  1  0
 27 36  1  0
A    1
 C1 
A    2
 C2 
A    3
 C3 
A    4
 O1 
A    5
 S1 
A    6
 C4 
A    7
 C5 
A    8
 C6 
A    9
 C7 
A   10
 C8 
A   11
 C9 
A   12
 H1 
A   13
 H2 
A   14
 C10
A   15
 S2 
A   16
 O2 
A   17
 H3 
A   18
 O3 
A   19
 H4 
A   20
 H5 
A   21
 H6 
A   22
 H7 
A   23
 H8 
A   24
 H9 
A   25
 H10
A   26
 H11
A   27
 C11
A   28
 H11
A   29
 H12
A   30
 H13
A   31
 H14
A   32
 H15
A   33
 H16
A   34
 H16
A   35
 H17
A   36
 H18
M  END
