fraglig_862_min_6PQL_A_2.97761_rhidx-fraglig_128_min_6PQL_A_2.69574_rhidx-fraglig_450_min_6PQL_A_2.59934_rhidx
 OpenBabel03222614093D

 21 20  0  0  0  0  0  0  0  0999 V2000
   56.0805   59.0577  118.1954 C   0  0  0  0  0  0  0  0  0  0  0  0
   57.2354   58.3466  117.4868 C   0  0  0  0  0  0  0  0  0  0  0  0
   58.5626   58.6971  118.1052 C   0  0  0  0  0  0  0  0  0  0  0  0
   58.9961   59.8294  118.2574 O   0  0  0  0  0  0  0  0  0  0  0  0
   59.5670   57.2957  118.6787 S   0  0  2  0  0  0  0  0  0  0  0  0
   61.0330   58.2421  119.2347 C   0  0  2  0  0  0  0  0  0  0  0  0
   54.8027   58.4719  117.7425 C   0  0  0  0  0  0  0  0  0  0  0  0
   53.7528   58.0615  117.3335 C   0  0  0  0  0  0  0  0  0  0  0  0
   59.9089   56.5270  117.4339 O   0  0  0  0  0  0  0  0  0  0  0  0
   60.6954   59.1044  120.8165 S   0  0  0  0  0  0  0  0  0  0  0  0
   56.0563   60.5141  117.9532 C   0  0  0  0  0  0  0  0  0  0  0  0
   55.9437   61.6966  117.7743 C   0  0  0  0  0  0  0  0  0  0  0  0
   61.7910   57.4767  119.4390 H   0  0  0  0  0  0  0  0  0  0  0  0
   61.5068   59.0857  118.1812 O   0  0  0  0  0  0  0  0  0  0  0  0
   52.8133   57.7409  116.9401 H   0  0  0  0  0  0  0  0  0  0  0  0
   60.1867   60.2030  120.2337 H   0  0  0  0  0  0  0  0  0  0  0  0
   55.7891   62.7402  117.6220 H   0  0  0  0  0  0  0  0  0  0  0  0
   62.8100   59.4897  118.5414 O   0  0  0  0  0  0  0  0  0  0  0  0
   56.1708   58.8933  119.2773 H   0  0  0  0  0  0  0  0  0  0  0  0
   57.0881   57.2604  117.5586 H   0  0  0  0  0  0  0  0  0  0  0  0
   57.2780   58.5874  116.4179 H   0  0  0  0  0  0  0  0  0  0  0  0
  1  2  1  0  0  0  0
  1 19  1  0  0  0  0
  2  3  1  0  0  0  0
  2 20  1  0  0  0  0
  2 21  1  0  0  0  0
  4  3  2  0  0  0  0
  5  3  1  0  0  0  0
  5  6  1  0  0  0  0
  5  9  2  6  0  0  0
  6 13  1  1  0  0  0
  6 14  1  0  0  0  0
  7  1  1  0  0  0  0
  8  7  3  0  0  0  0
  8 15  1  0  0  0  0
 10  6  1  0  0  0  0
 10 16  1  0  0  0  0
 11 12  3  0  0  0  0
 11  1  1  0  0  0  0
 12 17  1  0  0  0  0
 18 14  1  0  0  0  0
M  END
$$$$
