LIG
     RDKit          3D

 43 43  0  0  0  0  0  0  0  0999 V2000
   -0.7154    0.9795   -1.7720 C   0  0  0  0  0  0  0  0  0  0  0  0
   -0.6200    2.2603   -0.9435 C   0  0  0  0  0  0  0  0  0  0  0  0
    0.7781    2.4409   -0.4066 C   0  0  0  0  0  0  0  0  0  0  0  0
    1.7236    2.7928   -1.1074 O   0  0  0  0  0  0  0  0  0  0  0  0
    0.9691    2.1196    1.3141 S   0  0  0  0  0  0  0  0  0  0  0  0
    2.7288    1.6105    1.3506 C   0  0  0  0  0  0  0  0  0  0  0  0
    3.0698    0.2376    0.7342 C   0  0  1  0  0  0  0  0  0  0  0  0
    2.2311   -1.1349    1.5977 S   0  0  0  0  0  0  0  0  0  0  0  0
    2.7866    0.1815   -0.6681 O   0  0  0  0  0  0  0  0  0  0  0  0
    1.0096   -0.8742    1.1040 H   0  0  0  0  0  0  0  0  0  0  0  0
    3.7607    1.0461   -1.3314 O   0  0  0  0  0  0  0  0  0  0  0  0
   -0.7561   -3.5690   -0.7915 H   0  0  0  0  0  0  0  0  0  0  0  0
   -1.6422    1.0142   -2.3561 H   0  0  0  0  0  0  0  0  0  0  0  0
    0.1160    0.9778   -2.4881 H   0  0  0  0  0  0  0  0  0  0  0  0
    3.0338    1.6148    2.4036 H   0  0  0  0  0  0  0  0  0  0  0  0
    3.3130    2.3972    0.8614 H   0  0  0  0  0  0  0  0  0  0  0  0
    4.1432    0.0582    0.8667 H   0  0  0  0  0  0  0  0  0  0  0  0
    3.1341    1.7718   -1.5530 H   0  0  0  0  0  0  0  0  0  0  0  0
   -1.3689    2.2954   -0.1454 H   0  0  0  0  0  0  0  0  0  0  0  0
   -0.8266    3.1250   -1.5866 H   0  0  0  0  0  0  0  0  0  0  0  0
   -0.6541   -0.2246   -0.9618 N   0  0  0  0  0  0  0  0  0  0  0  0
   -1.7852   -0.4577   -0.0514 C   0  0  0  0  0  0  0  0  0  0  0  0
   -1.7677   -1.9491    0.2163 C   0  0  0  0  0  0  0  0  0  0  0  0
   -0.9706   -2.5168   -0.6985 C   0  0  0  0  0  0  0  0  0  0  0  0
   -0.3722   -1.5037   -1.6175 C   0  0  1  0  0  0  0  0  0  0  0  0
   -2.2576   -3.9423    1.6545 C   0  0  0  0  0  0  0  0  0  0  0  0
   -1.0659   -4.0557    2.5095 C   0  0  0  0  0  0  0  0  0  0  0  0
   -0.0837   -4.1376    3.1959 C   0  0  0  0  0  0  0  0  0  0  0  0
    0.7983   -4.1911    3.7912 H   0  0  0  0  0  0  0  0  0  0  0  0
   -2.4889   -2.5459    1.2497 N   0  0  0  0  0  0  0  0  0  0  0  0
   -3.1334   -4.3276    2.1912 H   0  0  0  0  0  0  0  0  0  0  0  0
   -3.1882   -1.7378    2.2513 C   0  0  0  0  0  0  0  0  0  0  0  0
   -3.7841   -0.9530    1.7733 H   0  0  0  0  0  0  0  0  0  0  0  0
   -2.4712   -1.2689    2.9337 H   0  0  0  0  0  0  0  0  0  0  0  0
   -3.8827   -2.3421    2.8450 H   0  0  0  0  0  0  0  0  0  0  0  0
   -2.3149   -1.3878   -3.0000 O   0  0  0  0  0  0  0  0  0  0  0  0
   -2.6796   -2.2667   -3.2207 H   0  0  0  0  0  0  0  0  0  0  0  0
   -0.8848   -1.6600   -2.9798 N   0  0  0  0  0  0  0  0  0  0  0  0
   -1.6374    0.1092    0.8724 H   0  0  0  0  0  0  0  0  0  0  0  0
   -2.7455   -0.1773   -0.5004 H   0  0  0  0  0  0  0  0  0  0  0  0
    0.7135   -1.6475   -1.6448 H   0  0  0  0  0  0  0  0  0  0  0  0
   -2.1559   -4.5853    0.7729 H   0  0  0  0  0  0  0  0  0  0  0  0
   -0.4995   -0.9182   -3.5614 H   0  0  0  0  0  0  0  0  0  0  0  0
  1  2  1  0
  2  3  1  0
  3  5  1  0
  4  3  2  0
  5  6  1  0
  7  9  1  0
  8  7  1  0
  8 10  1  0
 11  9  1  0
  7  6  1  0
 13  1  1  0
 14  1  1  0
  6 15  1  0
  6 16  1  0
  7 17  1  6
 11 18  1  0
  2 19  1  0
  2 20  1  0
 21 22  1  0
 21 25  1  0
 22 23  1  0
 23 24  2  0
 24 25  1  0
 24 12  1  0
  1 21  1  0
 26 30  1  0
 27 28  3  0
 27 26  1  0
 28 29  1  0
 26 31  1  0
 32 30  1  0
 32 33  1  0
 32 34  1  0
 32 35  1  0
 23 30  1  0
 37 36  1  0
 38 25  1  0
 38 36  1  0
 22 39  1  0
 22 40  1  0
 25 41  1  6
 26 42  1  0
 38 43  1  0
A    1
 C1 
A    2
 C2 
A    3
 C3 
A    4
 O1 
A    5
 S1 
A    6
 C4 
A    7
 C10
A    8
 S2 
A    9
 O2 
A   10
 H3 
A   11
 O3 
A   12
 H4 
A   13
 H5 
A   14
 H6 
A   15
 H7 
A   16
 H8 
A   17
 H10
A   18
 H11
A   19
 H11
A   20
 H12
A   26
 C7 
A   27
 C8 
A   28
 C9 
A   29
 H1 
A   30
 H2 
A   31
 H9 
A   32
 C11
A   33
 H16
A   34
 H17
A   35
 H18
A   36
 H14
A   37
 H16
M  END
