LIG
     RDKit          3D

 43 43  0  0  0  0  0  0  0  0999 V2000
   56.9140   58.7250  117.6900 C   0  0  0  0  0  0  0  0  0  0  0  0
   58.1740   59.0190  118.4950 C   0  0  0  0  0  0  0  0  0  0  0  0
   59.4090   58.3640  117.9160 C   0  0  0  0  0  0  0  0  0  0  0  0
   59.9390   58.7350  116.8900 O   0  0  0  0  0  0  0  0  0  0  0  0
   60.0490   56.9950  118.8170 S   0  0  0  0  0  0  0  0  0  0  0  0
   61.0010   57.8870  120.0810 C   0  0  0  0  0  0  0  0  0  0  0  0
   60.4850   59.2840  120.4430 C   0  0  1  0  0  0  0  0  0  0  0  0
   60.1870   59.4280  122.2450 S   0  0  0  0  0  0  0  0  0  0  0  0
   61.4390   60.2780  120.0220 O   0  0  0  0  0  0  0  0  0  0  0  0
   61.3190   60.1100  122.5130 H   0  0  0  0  0  0  0  0  0  0  0  0
   62.3630   59.6480  119.0840 O   0  0  0  0  0  0  0  0  0  0  0  0
   54.2590   58.2790  118.2650 H   0  0  0  0  0  0  0  0  0  0  0  0
   56.4890   57.7890  118.0760 H   0  0  0  0  0  0  0  0  0  0  0  0
   57.1700   58.4930  116.6540 H   0  0  0  0  0  0  0  0  0  0  0  0
   60.9930   57.2670  120.9840 H   0  0  0  0  0  0  0  0  0  0  0  0
   62.0520   57.9240  119.7700 H   0  0  0  0  0  0  0  0  0  0  0  0
   59.5330   59.5040  119.9630 H   0  0  0  0  0  0  0  0  0  0  0  0
   61.7060   59.4900  118.3790 H   0  0  0  0  0  0  0  0  0  0  0  0
   58.3250   60.0940  118.6110 H   0  0  0  0  0  0  0  0  0  0  0  0
   58.0600   58.6040  119.5030 H   0  0  0  0  0  0  0  0  0  0  0  0
   56.8000   59.9200  117.3800 N   0  0  0  0  0  0  0  0  0  0  0  0
   56.1700   60.9700  117.9300 C   0  0  0  0  0  0  0  0  0  0  0  0
   54.9900   60.9000  118.0600 C   0  0  0  0  0  0  0  0  0  0  0  0
   54.4400   59.9000  117.7100 C   0  0  0  0  0  0  0  0  0  0  0  0
   55.5000   59.4500  117.3500 C   0  0  1  0  0  0  0  0  0  0  0  0
   55.7320   60.7050  118.9600 C   0  0  0  0  0  0  0  0  0  0  0  0
   56.9080   61.5910  119.0110 C   0  0  0  0  0  0  0  0  0  0  0  0
   57.8690   62.3090  119.0610 C   0  0  0  0  0  0  0  0  0  0  0  0
   58.7250   62.9400  119.1010 H   0  0  0  0  0  0  0  0  0  0  0  0
   54.5490   61.5200  118.8720 N   0  0  0  0  0  0  0  0  0  0  0  0
   55.6670   60.0940  119.8680 H   0  0  0  0  0  0  0  0  0  0  0  0
   54.3630   62.1000  117.5800 C   0  0  0  0  0  0  0  0  0  0  0  0
   53.6770   62.9520  117.6220 H   0  0  0  0  0  0  0  0  0  0  0  0
   55.3230   62.4020  117.1550 H   0  0  0  0  0  0  0  0  0  0  0  0
   53.9210   61.3470  116.9220 H   0  0  0  0  0  0  0  0  0  0  0  0
   54.3660   58.4370  116.2380 O   0  0  0  0  0  0  0  0  0  0  0  0
   54.9420   57.6230  116.2310 H   0  0  0  0  0  0  0  0  0  0  0  0
   54.9330   58.9435  116.7940 N   0  0  0  0  0  0  0  0  0  0  0  0
   56.7258   61.8639  118.2493 H   0  0  0  0  0  0  0  0  0  0  0  0
   56.0338   61.4113  116.9316 H   0  0  0  0  0  0  0  0  0  0  0  0
   56.4449   59.1437  117.8226 H   0  0  0  0  0  0  0  0  0  0  0  0
   55.8223   60.0409  118.0877 H   0  0  0  0  0  0  0  0  0  0  0  0
    0.0000    0.0000    0.0000 H   0  0  0  0  0  0  0  0  0  0  0  0
  1  2  1  0
  2  3  1  0
  3  5  1  0
  4  3  2  0
  5  6  1  0
  7  9  1  0
  8  7  1  0
  8 10  1  0
 11  9  1  0
  7  6  1  0
 13  1  1  0
 14  1  1  0
  6 15  1  0
  6 16  1  0
  7 17  1  6
 11 18  1  0
  2 19  1  0
  2 20  1  0
 21 22  1  0
 21 25  1  0
 22 23  1  0
 23 24  2  0
 24 25  1  0
 24 12  1  0
  1 21  1  0
 26 30  1  0
 27 28  3  0
 27 26  1  0
 28 29  1  0
 26 31  1  0
 32 30  1  0
 32 33  1  0
 32 34  1  0
 32 35  1  0
 23 30  1  0
 37 36  1  0
 38 25  1  0
 38 36  1  0
 22 39  1  0
 22 40  1  0
 25 41  1  1
 26 42  1  0
 38 43  1  0
A    1
 C1 
A    2
 C2 
A    3
 C3 
A    4
 O1 
A    5
 S1 
A    6
 C4 
A    7
 C10
A    8
 S2 
A    9
 O2 
A   10
 H3 
A   11
 O3 
A   12
 H4 
A   13
 H5 
A   14
 H6 
A   15
 H7 
A   16
 H8 
A   17
 H10
A   18
 H11
A   19
 H11
A   20
 H12
A   26
 C7 
A   27
 C8 
A   28
 C9 
A   29
 H1 
A   30
 H2 
A   31
 H9 
A   32
 C11
A   33
 H16
A   34
 H17
A   35
 H18
A   36
 H14
A   37
 H16
M  END
