LIG
     RDKit          3D

 36 35  0  0  0  0  0  0  0  0999 V2000
   56.9140   58.7250  117.6900 C   0  0  2  0  0  0  0  0  0  0  0  0
   58.1740   59.0190  118.4950 C   0  0  1  0  0  0  0  0  0  0  0  0
   59.4090   58.3640  117.9160 C   0  0  0  0  0  0  0  0  0  0  0  0
   59.9390   58.7350  116.8900 O   0  0  0  0  0  0  0  0  0  0  0  0
   60.0490   56.9950  118.8170 S   0  0  0  0  0  0  0  0  0  0  0  0
   61.0010   57.8870  120.0810 C   0  0  1  0  0  0  0  0  0  0  0  0
   55.7700   59.7720  117.7210 C   0  0  1  0  0  0  0  0  0  0  0  0
   54.4280   59.0540  117.5140 C   0  0  1  0  0  0  0  0  0  0  0  0
   55.7320   60.7050  118.9600 C   0  0  1  0  0  0  0  0  0  0  0  0
   56.9080   61.5910  119.0110 C   0  0  0  0  0  0  0  0  0  0  0  0
   57.8690   62.3090  119.0610 C   0  0  0  0  0  0  0  0  0  0  0  0
   58.7250   62.9400  119.1010 H   0  0  0  0  0  0  0  0  0  0  0  0
   54.5490   61.5200  118.8720 O   0  0  0  0  0  0  0  0  0  0  0  0
   60.4850   59.2840  120.4430 C   0  0  1  0  0  0  0  0  0  0  0  0
   60.1870   59.4280  122.2450 S   0  0  0  0  0  0  0  0  0  0  0  0
   61.4390   60.2780  120.0220 O   0  0  0  0  0  0  0  0  0  0  0  0
   61.3190   60.1100  122.5130 H   0  0  0  0  0  0  0  0  0  0  0  0
   62.3630   59.6480  119.0840 O   0  0  0  0  0  0  0  0  0  0  0  0
   54.2590   58.2790  118.2650 H   0  0  0  0  0  0  0  0  0  0  0  0
   56.4890   57.7890  118.0760 H   0  0  0  0  0  0  0  0  0  0  0  0
   57.1700   58.4930  116.6540 H   0  0  0  0  0  0  0  0  0  0  0  0
   60.9930   57.2670  120.9840 H   0  0  0  0  0  0  0  0  0  0  0  0
   62.0520   57.9240  119.7700 H   0  0  0  0  0  0  0  0  0  0  0  0
   55.6670   60.0940  119.8680 H   0  0  0  0  0  0  0  0  0  0  0  0
   59.5330   59.5040  119.9630 H   0  0  0  0  0  0  0  0  0  0  0  0
   61.7060   59.4900  118.3790 H   0  0  0  0  0  0  0  0  0  0  0  0
   54.3630   62.1000  117.5800 C   0  0  1  0  0  0  0  0  0  0  0  0
   58.3250   60.0940  118.6110 H   0  0  0  0  0  0  0  0  0  0  0  0
   58.0600   58.6040  119.5030 H   0  0  0  0  0  0  0  0  0  0  0  0
   55.9110   60.4180  116.8460 H   0  0  0  0  0  0  0  0  0  0  0  0
   54.3660   58.4370  116.2380 O   0  0  0  0  0  0  0  0  0  0  0  0
   53.5900   59.7550  117.5640 H   0  0  0  0  0  0  0  0  0  0  0  0
   53.6770   62.9520  117.6220 H   0  0  0  0  0  0  0  0  0  0  0  0
   54.9420   57.6230  116.2310 H   0  0  0  0  0  0  0  0  0  0  0  0
   55.3230   62.4020  117.1550 H   0  0  0  0  0  0  0  0  0  0  0  0
   53.9210   61.3470  116.9220 H   0  0  0  0  0  0  0  0  0  0  0  0
  1  2  1  0
  2  3  1  0
  3  5  1  0
  4  3  2  0
  5  6  1  0
  7  1  1  0
  8  7  1  0
  9 13  1  0
 10 11  3  0
 10  9  1  0
 11 12  1  0
  9  7  1  0
 14 16  1  0
 15 14  1  0
 15 17  1  0
 18 16  1  0
 14  6  1  0
  8 19  1  1
  1 20  1  1
 21  1  1  0
  6 22  1  1
  6 23  1  0
  9 24  1  1
 14 25  1  6
 18 26  1  0
 27 13  1  0
  2 28  1  1
  2 29  1  0
  7 30  1  6
  8 31  1  0
  8 32  1  0
 27 33  1  1
 34 31  1  0
 27 35  1  0
 27 36  1  0
A    1
 C1 
A    2
 C2 
A    3
 C3 
A    4
 O1 
A    5
 S1 
A    6
 C4 
A    7
 C5 
A    8
 C6 
A    9
 C7 
A   10
 C8 
A   11
 C9 
A   12
 H1 
A   13
 H2 
A   14
 C10
A   15
 S2 
A   16
 O2 
A   17
 H3 
A   18
 O3 
A   19
 H4 
A   20
 H5 
A   21
 H6 
A   22
 H7 
A   23
 H8 
A   24
 H9 
A   25
 H10
A   26
 H11
A   27
 C11
A   28
 H11
A   29
 H12
A   30
 H13
A   31
 H14
A   32
 H15
A   33
 H16
A   34
 H16
A   35
 H17
A   36
 H18
M  END
