LIG
     RDKit          3D

 33 32  0  0  0  0  0  0  0  0999 V2000
    1.5323   -1.4077   -0.7840 C   0  0  0  0  0  0  0  0  0  0  0  0
    0.4830   -2.0742    0.1074 C   0  0  0  0  0  0  0  0  0  0  0  0
   -0.8048   -1.2993    0.2517 C   0  0  0  0  0  0  0  0  0  0  0  0
   -1.0820   -0.6597    1.2589 O   0  0  0  0  0  0  0  0  0  0  0  0
   -1.8917   -1.3824   -1.1321 S   0  0  0  0  0  0  0  0  0  0  0  0
   -3.1679   -0.2014   -0.5662 C   0  0  0  0  0  0  0  0  0  0  0  0
    2.1502   -0.0710   -0.3011 C   0  0  1  0  0  0  0  0  0  0  0  0
    1.2218    1.1189   -0.5875 C   0  0  0  0  0  0  0  0  0  0  0  0
    2.6223   -0.0643    1.1751 C   0  0  1  0  0  0  0  0  0  0  0  0
    3.6079   -1.1364    1.4233 C   0  0  0  0  0  0  0  0  0  0  0  0
    4.4129   -2.0042    1.6296 C   0  0  0  0  0  0  0  0  0  0  0  0
    5.1364   -2.7664    1.8083 H   0  0  0  0  0  0  0  0  0  0  0  0
    3.2304    1.2055    1.4393 O   0  0  0  0  0  0  0  0  0  0  0  0
   -4.2977    0.0008   -1.5853 C   0  0  1  0  0  0  0  0  0  0  0  0
   -5.3252   -1.5047   -1.7813 S   0  0  0  0  0  0  0  0  0  0  0  0
   -5.1055    1.0951   -1.1181 O   0  0  0  0  0  0  0  0  0  0  0  0
   -4.3126   -2.3135   -2.1294 H   0  0  0  0  0  0  0  0  0  0  0  0
   -5.8674    1.5720   -2.2699 O   0  0  0  0  0  0  0  0  0  0  0  0
    0.8107    1.0648   -1.6010 H   0  0  0  0  0  0  0  0  0  0  0  0
    1.1241   -1.2656   -1.7924 H   0  0  0  0  0  0  0  0  0  0  0  0
    2.3515   -2.1287   -0.9075 H   0  0  0  0  0  0  0  0  0  0  0  0
   -3.5782   -0.5276    0.3971 H   0  0  0  0  0  0  0  0  0  0  0  0
   -2.6816    0.7646   -0.3842 H   0  0  0  0  0  0  0  0  0  0  0  0
    1.7545   -0.1812    1.8361 H   0  0  0  0  0  0  0  0  0  0  0  0
   -3.8742    0.2706   -2.5605 H   0  0  0  0  0  0  0  0  0  0  0  0
   -6.6871    1.0812   -2.0689 H   0  0  0  0  0  0  0  0  0  0  0  0
    3.3800    1.3957    2.8419 C   0  0  0  0  0  0  0  0  0  0  0  0
    0.2435   -3.0671   -0.2941 H   0  0  0  0  0  0  0  0  0  0  0  0
    0.8808   -2.2589    1.1110 H   0  0  0  0  0  0  0  0  0  0  0  0
    3.0342    0.1001   -0.9344 H   0  0  0  0  0  0  0  0  0  0  0  0
    0.3908    1.1712    0.1200 H   0  0  0  0  0  0  0  0  0  0  0  0
    1.7708    2.0638   -0.5138 H   0  0  0  0  0  0  0  0  0  0  0  0
    3.8407    2.3724    3.0107 H   0  0  0  0  0  0  0  0  0  0  0  0
  1  2  1  0
  2  3  1  0
  3  5  1  0
  4  3  2  0
  5  6  1  0
  7  1  1  0
  8  7  1  0
  9 13  1  0
 10 11  3  0
 10  9  1  0
 11 12  1  0
  9  7  1  0
 14 16  1  0
 15 14  1  0
 15 17  1  0
 18 16  1  0
 14  6  1  0
 19  8  1  0
 20  1  1  0
 21  1  1  0
  6 22  1  0
  6 23  1  0
  9 24  1  1
 14 25  1  6
 18 26  1  0
 27 13  1  0
  2 28  1  0
  2 29  1  0
  7 30  1  6
  8 31  1  0
  8 32  1  0
 27 33  1  0
A    1
 C1 
A    2
 C2 
A    3
 C3 
A    4
 O1 
A    5
 S1 
A    6
 C4 
A    7
 C5 
A    8
 C6 
A    9
 C7 
A   10
 C8 
A   11
 C9 
A   12
 H1 
A   13
 H2 
A   14
 C10
A   15
 S2 
A   16
 O2 
A   17
 H3 
A   18
 O3 
A   19
 H4 
A   20
 H5 
A   21
 H6 
A   22
 H7 
A   23
 H8 
A   24
 H9 
A   25
 H10
A   26
 H11
M  END
