fraglig_86_min_6PQL_A_2.80325_rhidx
     RDKit          3D

  9  8  0  0  0  0  0  0  0  0999 V2000
   57.4300   59.6400  117.9200 C   0  0  0  0  0  0  0  0  0  0  0  0
   58.5900   59.4500  118.0800 C   0  0  0  0  0  0  0  0  0  0  0  0
   59.7800   59.4100  118.2400 C   0  0  0  0  0  0  0  0  0  0  0  0
   61.0800   59.5300  118.3900 O   0  0  0  0  0  0  0  0  0  0  0  0
   61.6400   58.6400  119.1800 C   0  0  0  0  0  0  0  0  0  0  0  0
   62.1300   57.8300  119.8600 O   0  0  0  0  0  0  0  0  0  0  0  0
   56.2900   59.9900  117.7300 C   0  0  0  0  0  0  0  0  0  0  0  0
   55.2100   60.4500  117.5500 C   0  0  0  0  0  0  0  0  0  0  0  0
   54.1500   60.9700  117.3600 C   0  0  0  0  0  0  0  0  0  0  0  0
  1  2  3  0
  2  3  1  0
  3  4  1  0
  4  5  1  0
  5  6  1  0
  7  1  1  0
  8  7  3  0
  9  8  1  0
M  END
