LIG
     RDKit          3D

 43 43  0  0  0  0  0  0  0  0999 V2000
   57.4580   58.6770  117.7500 C   0  0  0  0  0  0  0  0  0  0  0  0
   58.6140   58.9080  118.6820 C   0  0  0  0  0  0  0  0  0  0  0  0
   59.7890   58.3180  117.9920 C   0  0  0  0  0  0  0  0  0  0  0  0
   60.0790   58.6240  116.8550 O   0  0  0  0  0  0  0  0  0  0  0  0
   60.7060   57.1340  118.9040 S   0  0  0  0  0  0  0  0  0  0  0  0
   60.4520   57.8230  120.5600 C   0  0  0  0  0  0  0  0  0  0  0  0
   60.9000   59.2360  120.9160 C   0  0  2  0  0  0  0  0  0  0  0  0
   59.6710   59.9220  122.0720 S   0  0  0  0  0  0  0  0  0  0  0  0
   61.1150   60.1140  119.8040 O   0  0  0  0  0  0  0  0  0  0  0  0
   60.5750   60.5600  122.8410 H   0  0  0  0  0  0  0  0  0  0  0  0
   62.2770   59.6340  119.0520 O   0  0  0  0  0  0  0  0  0  0  0  0
   53.1430   59.8840  118.0780 H   0  0  0  0  0  0  0  0  0  0  0  0
   57.7880   58.9040  116.7370 H   0  0  0  0  0  0  0  0  0  0  0  0
   57.2130   57.6050  117.7670 H   0  0  0  0  0  0  0  0  0  0  0  0
   60.8860   57.1190  121.2730 H   0  0  0  0  0  0  0  0  0  0  0  0
   59.3830   57.7880  120.7150 H   0  0  0  0  0  0  0  0  0  0  0  0
   61.8300   59.1760  121.4890 H   0  0  0  0  0  0  0  0  0  0  0  0
   62.7830   60.4760  119.1280 H   0  0  0  0  0  0  0  0  0  0  0  0
   58.7590   59.9630  118.9410 H   0  0  0  0  0  0  0  0  0  0  0  0
   58.4610   58.3650  119.6170 H   0  0  0  0  0  0  0  0  0  0  0  0
   55.5050   62.7570  120.0150 C   0  0  0  0  0  0  0  0  0  0  0  0
   56.8920   62.5480  119.5650 C   0  0  0  0  0  0  0  0  0  0  0  0
   58.0300   62.4200  119.1990 C   0  0  0  0  0  0  0  0  0  0  0  0
   59.0380   62.3330  118.8620 H   0  0  0  0  0  0  0  0  0  0  0  0
   54.5570   62.1490  119.0960 N   0  0  0  0  0  0  0  0  0  0  0  0
   55.3800   62.3300  121.0180 H   0  0  0  0  0  0  0  0  0  0  0  0
   53.4780   62.9360  118.5350 C   0  0  0  0  0  0  0  0  0  0  0  0
   53.6730   63.1870  117.4850 H   0  0  0  0  0  0  0  0  0  0  0  0
   52.5380   62.3720  118.5770 H   0  0  0  0  0  0  0  0  0  0  0  0
   53.3260   63.8760  119.0770 H   0  0  0  0  0  0  0  0  0  0  0  0
   54.1900   57.8360  115.9290 O   0  0  0  0  0  0  0  0  0  0  0  0
   54.8780   57.2470  115.5670 H   0  0  0  0  0  0  0  0  0  0  0  0
   54.6810   57.9030  117.2660 N   0  0  0  0  0  0  0  0  0  0  0  0
   57.1070   61.2430  118.6850 H   0  0  0  0  0  0  0  0  0  0  0  0
   56.5520   61.1970  116.9780 H   0  0  0  0  0  0  0  0  0  0  0  0
   55.3390   59.5580  116.3090 H   0  0  0  0  0  0  0  0  0  0  0  0
   55.2990   63.8250  120.1360 H   0  0  0  0  0  0  0  0  0  0  0  0
   53.8410   57.8440  117.8330 H   0  0  0  0  0  0  0  0  0  0  0  0
   56.3090   59.4250  118.0910 N   0  0  0  0  0  0  0  0  0  0  0  0
   56.3760   60.8390  117.9860 C   0  0  0  0  0  0  0  0  0  0  0  0
   54.9470   61.0860  118.4100 C   0  0  0  0  0  0  0  0  0  0  0  0
   54.2030   60.0700  117.9780 C   0  0  0  0  0  0  0  0  0  0  0  0
   55.1630   59.2090  117.3150 C   0  0  2  0  0  0  0  0  0  0  0  0
  1  2  1  0
  2  3  1  0
  3  5  1  0
  4  3  2  0
  5  6  1  0
  7  9  1  0
  8  7  1  0
  8 10  1  0
 11  9  1  0
  7  6  1  0
 13  1  1  0
 14  1  1  0
  6 15  1  0
  6 16  1  0
  7 17  1  1
 11 18  1  0
  2 19  1  0
  2 20  1  0
 21 25  1  0
 22 23  3  0
 22 21  1  0
 23 24  1  0
 21 26  1  0
 27 25  1  0
 27 28  1  0
 27 29  1  0
 27 30  1  0
 32 31  1  0
 33 31  1  0
 21 37  1  0
 33 38  1  0
 39 40  1  0
 39 43  1  0
 39  1  1  0
 40 41  1  0
 40 34  1  0
 40 35  1  0
 41 42  2  0
 41 25  1  0
 42 43  1  0
 42 12  1  0
 43 33  1  0
 43 36  1  6
A    1
 C1 
A    2
 C2 
A    3
 C3 
A    4
 O1 
A    5
 S1 
A    6
 C4 
A    7
 C10
A    8
 S2 
A    9
 O2 
A   10
 H3 
A   11
 O3 
A   12
 H4 
A   13
 H5 
A   14
 H6 
A   15
 H7 
A   16
 H8 
A   17
 H10
A   18
 H11
A   19
 H11
A   20
 H12
A   21
 C7 
A   22
 C8 
A   23
 C9 
A   24
 H1 
A   25
 H2 
A   26
 H9 
A   27
 C11
A   28
 H16
A   29
 H17
A   30
 H18
A   31
 H14
A   32
 H16
A   33
 N3 
A   34
 H17
A   35
 H18
A   36
 H19
A   37
 H20
A   38
 H21
M  END
