LIG
     RDKit          3D

 36 35  0  0  0  0  0  0  0  0999 V2000
   56.9450   58.7740  117.5860 C   0  0  2  0  0  0  0  0  0  0  0  0
   58.2170   59.0570  118.3840 C   0  0  1  0  0  0  0  0  0  0  0  0
   59.4400   58.3680  117.8310 C   0  0  0  0  0  0  0  0  0  0  0  0
   59.9980   58.7210  116.8190 O   0  0  0  0  0  0  0  0  0  0  0  0
   60.0240   56.9860  118.7520 S   0  0  0  0  0  0  0  0  0  0  0  0
   61.0500   57.8760  119.9530 C   0  0  1  0  0  0  0  0  0  0  0  0
   55.8380   59.8500  117.6500 C   0  0  1  0  0  0  0  0  0  0  0  0
   54.4570   59.2550  117.3310 C   0  0  1  0  0  0  0  0  0  0  0  0
   55.7650   60.6270  118.9800 C   0  0  1  0  0  0  0  0  0  0  0  0
   56.8550   61.6100  119.0620 C   0  0  0  0  0  0  0  0  0  0  0  0
   57.7550   62.3910  119.1400 C   0  0  0  0  0  0  0  0  0  0  0  0
   58.5650   63.0780  119.2150 H   0  0  0  0  0  0  0  0  0  0  0  0
   54.4990   61.3000  119.0270 O   0  0  0  0  0  0  0  0  0  0  0  0
   60.5320   59.2560  120.3550 C   0  0  1  0  0  0  0  0  0  0  0  0
   60.4030   59.3850  122.1750 S   0  0  0  0  0  0  0  0  0  0  0  0
   61.4020   60.2820  119.8400 O   0  0  0  0  0  0  0  0  0  0  0  0
   61.4890   60.1670  122.3380 H   0  0  0  0  0  0  0  0  0  0  0  0
   62.3970   59.6440  118.9870 O   0  0  0  0  0  0  0  0  0  0  0  0
   54.1050   58.6030  118.1350 H   0  0  0  0  0  0  0  0  0  0  0  0
   56.5150   57.8430  117.9680 H   0  0  0  0  0  0  0  0  0  0  0  0
   57.1900   58.5430  116.5510 H   0  0  0  0  0  0  0  0  0  0  0  0
   61.1040   57.2520  120.8490 H   0  0  0  0  0  0  0  0  0  0  0  0
   62.0770   57.9260  119.5740 H   0  0  0  0  0  0  0  0  0  0  0  0
   55.8180   59.9230  119.8140 H   0  0  0  0  0  0  0  0  0  0  0  0
   59.5300   59.4400  119.9730 H   0  0  0  0  0  0  0  0  0  0  0  0
   61.7910   59.4540  118.2450 H   0  0  0  0  0  0  0  0  0  0  0  0
   54.2500   62.1280  117.8870 C   0  0  1  0  0  0  0  0  0  0  0  0
   58.3850   60.1320  118.4810 H   0  0  0  0  0  0  0  0  0  0  0  0
   58.0900   58.6650  119.3960 H   0  0  0  0  0  0  0  0  0  0  0  0
   56.0520   60.5840  116.8660 H   0  0  0  0  0  0  0  0  0  0  0  0
   54.4590   58.5060  116.1360 O   0  0  0  0  0  0  0  0  0  0  0  0
   53.7140   60.0450  117.1950 H   0  0  0  0  0  0  0  0  0  0  0  0
   55.1290   62.1990  117.2420 H   0  0  0  0  0  0  0  0  0  0  0  0
   55.0240   57.6910  116.2270 H   0  0  0  0  0  0  0  0  0  0  0  0
   53.3890   61.7580  117.3190 H   0  0  0  0  0  0  0  0  0  0  0  0
   54.0070   63.1280  118.2520 H   0  0  0  0  0  0  0  0  0  0  0  0
  1  2  1  0
  2  3  1  0
  3  5  1  0
  4  3  2  0
  5  6  1  0
  7  1  1  0
  8  7  1  0
  9 13  1  0
 10 11  3  0
 10  9  1  0
 11 12  1  0
  9  7  1  0
 14 16  1  0
 15 14  1  0
 15 17  1  0
 18 16  1  0
 14  6  1  0
  8 19  1  1
  1 20  1  1
 21  1  1  0
  6 22  1  1
  6 23  1  0
  9 24  1  1
 14 25  1  6
 18 26  1  0
 27 13  1  0
  2 28  1  1
  2 29  1  0
  7 30  1  6
  8 31  1  0
  8 32  1  0
 27 33  1  6
 34 31  1  0
 27 35  1  0
 27 36  1  0
A    1
 C1 
A    2
 C2 
A    3
 C3 
A    4
 O1 
A    5
 S1 
A    6
 C4 
A    7
 C5 
A    8
 C6 
A    9
 C7 
A   10
 C8 
A   11
 C9 
A   12
 H1 
A   13
 H2 
A   14
 C10
A   15
 S2 
A   16
 O2 
A   17
 H3 
A   18
 O3 
A   19
 H4 
A   20
 H5 
A   21
 H6 
A   22
 H7 
A   23
 H8 
A   24
 H9 
A   25
 H10
A   26
 H11
A   27
 C11
A   28
 H11
A   29
 H12
A   30
 H13
A   31
 H14
A   32
 H15
A   33
 H16
A   34
 H16
A   35
 H17
A   36
 H18
M  END
