fraglig_148_min_6PQL_A_2.81686_rhidx
     RDKit          3D

 10  9  0  0  0  0  0  0  0  0999 V2000
   56.7200   59.7400  117.7100 C   0  0  0  0  0  0  0  0  0  0  0  0
   57.7200   59.0700  117.8200 C   0  0  0  0  0  0  0  0  0  0  0  0
   58.6700   58.3400  117.9900 C   0  0  0  0  0  0  0  0  0  0  0  0
   59.5900   57.5900  118.2000 C   0  0  0  0  0  0  0  0  0  0  0  0
   60.5800   56.8000  118.5200 O   0  0  0  0  0  0  0  0  0  0  0  0
   61.4600   57.4000  119.2800 C   0  0  0  0  0  0  0  0  0  0  0  0
   62.2400   57.9500  119.9500 O   0  0  0  0  0  0  0  0  0  0  0  0
   55.6800   60.3500  117.6700 C   0  0  0  0  0  0  0  0  0  0  0  0
   54.6200   60.9100  117.6900 C   0  0  0  0  0  0  0  0  0  0  0  0
   53.5600   61.4600  117.7400 C   0  0  0  0  0  0  0  0  0  0  0  0
  1  2  1  0
  2  3  1  0
  3  4  3  0
  4  5  1  0
  5  6  1  0
  6  7  1  0
  8  9  1  0
  8  1  3  0
  9 10  3  0
M  END
