LIG
     RDKit          3D

 43 43  0  0  0  0  0  0  0  0999 V2000
   57.2800   59.0320  117.6200 C   0  0  0  0  0  0  0  0  0  0  0  0
   58.4280   58.7060  118.5760 C   0  0  0  0  0  0  0  0  0  0  0  0
   59.6800   58.2990  117.8300 C   0  0  0  0  0  0  0  0  0  0  0  0
   59.9220   58.5810  116.6680 O   0  0  0  0  0  0  0  0  0  0  0  0
   60.8190   57.3420  118.7760 S   0  0  0  0  0  0  0  0  0  0  0  0
   60.3630   57.8880  120.4560 C   0  0  0  0  0  0  0  0  0  0  0  0
   60.9510   59.2100  120.9590 C   0  0  2  0  0  0  0  0  0  0  0  0
   59.7950   60.0220  122.1220 S   0  0  0  0  0  0  0  0  0  0  0  0
   61.2130   60.0470  119.8080 O   0  0  0  0  0  0  0  0  0  0  0  0
   60.7460   60.8000  122.6750 H   0  0  0  0  0  0  0  0  0  0  0  0
   62.3350   59.4730  119.0600 O   0  0  0  0  0  0  0  0  0  0  0  0
   53.0950   60.7080  118.3870 H   0  0  0  0  0  0  0  0  0  0  0  0
   57.6820   59.5520  116.7550 H   0  0  0  0  0  0  0  0  0  0  0  0
   56.8520   58.0870  117.2510 H   0  0  0  0  0  0  0  0  0  0  0  0
   60.6410   57.0860  121.1450 H   0  0  0  0  0  0  0  0  0  0  0  0
   59.2720   57.9370  120.5120 H   0  0  0  0  0  0  0  0  0  0  0  0
   61.8870   59.0350  121.4880 H   0  0  0  0  0  0  0  0  0  0  0  0
   61.9760   59.6750  118.1700 H   0  0  0  0  0  0  0  0  0  0  0  0
   58.6750   59.5770  119.1890 H   0  0  0  0  0  0  0  0  0  0  0  0
   58.1350   57.8960  119.2340 H   0  0  0  0  0  0  0  0  0  0  0  0
   55.5300   63.2030  120.6220 C   0  0  0  0  0  0  0  0  0  0  0  0
   56.9700   62.9840  120.4210 C   0  0  0  0  0  0  0  0  0  0  0  0
   58.1520   62.8210  120.2790 C   0  0  0  0  0  0  0  0  0  0  0  0
   59.2040   62.6760  120.1510 H   0  0  0  0  0  0  0  0  0  0  0  0
   54.7640   62.8420  119.4210 N   0  0  0  0  0  0  0  0  0  0  0  0
   55.1780   62.6180  121.4800 H   0  0  0  0  0  0  0  0  0  0  0  0
   53.4270   63.4410  119.3580 C   0  0  0  0  0  0  0  0  0  0  0  0
   53.1040   63.6200  118.3240 H   0  0  0  0  0  0  0  0  0  0  0  0
   52.6800   62.7730  119.8020 H   0  0  0  0  0  0  0  0  0  0  0  0
   53.4120   64.3980  119.8950 H   0  0  0  0  0  0  0  0  0  0  0  0
   54.2680   58.0480  116.1470 O   0  0  0  0  0  0  0  0  0  0  0  0
   54.7690   57.1960  116.1170 H   0  0  0  0  0  0  0  0  0  0  0  0
   54.4530   58.4280  117.5350 N   0  0  0  0  0  0  0  0  0  0  0  0
   57.2270   61.5710  118.8280 H   0  0  0  0  0  0  0  0  0  0  0  0
   56.5700   61.6470  117.1550 H   0  0  0  0  0  0  0  0  0  0  0  0
   55.0840   60.1020  116.4600 H   0  0  0  0  0  0  0  0  0  0  0  0
   55.3430   64.2470  120.8980 H   0  0  0  0  0  0  0  0  0  0  0  0
   53.4880   58.4880  117.8600 H   0  0  0  0  0  0  0  0  0  0  0  0
   56.2090   59.8300  118.2420 N   0  0  0  0  0  0  0  0  0  0  0  0
   56.4080   61.2730  118.1690 C   0  0  0  0  0  0  0  0  0  0  0  0
   55.0350   61.7070  118.6750 C   0  0  0  0  0  0  0  0  0  0  0  0
   54.1620   60.7570  118.2370 C   0  0  0  0  0  0  0  0  0  0  0  0
   54.9810   59.7660  117.4900 C   0  0  2  0  0  0  0  0  0  0  0  0
  1  2  1  0
  2  3  1  0
  3  5  1  0
  4  3  2  0
  5  6  1  0
  7  9  1  0
  8  7  1  0
  8 10  1  0
 11  9  1  0
  7  6  1  0
 13  1  1  0
 14  1  1  0
  6 15  1  0
  6 16  1  0
  7 17  1  1
 11 18  1  0
  2 19  1  0
  2 20  1  0
 21 25  1  0
 22 23  3  0
 22 21  1  0
 23 24  1  0
 21 26  1  0
 27 25  1  0
 27 28  1  0
 27 29  1  0
 27 30  1  0
 32 31  1  0
 33 31  1  0
 21 37  1  0
 33 38  1  0
 39 40  1  0
 39 43  1  0
 39  1  1  0
 40 41  1  0
 40 34  1  0
 40 35  1  0
 41 42  2  0
 41 25  1  0
 42 43  1  0
 42 12  1  0
 43 33  1  0
 43 36  1  6
A    1
 C1 
A    2
 C2 
A    3
 C3 
A    4
 O1 
A    5
 S1 
A    6
 C4 
A    7
 C10
A    8
 S2 
A    9
 O2 
A   10
 H3 
A   11
 O3 
A   12
 H4 
A   13
 H5 
A   14
 H6 
A   15
 H7 
A   16
 H8 
A   17
 H10
A   18
 H11
A   19
 H11
A   20
 H12
A   21
 C7 
A   22
 C8 
A   23
 C9 
A   24
 H1 
A   25
 H2 
A   26
 H9 
A   27
 C11
A   28
 H16
A   29
 H17
A   30
 H18
A   31
 H14
A   32
 H16
A   33
 N3 
A   34
 H17
A   35
 H18
A   36
 H19
A   37
 H20
A   38
 H21
A   39
 N3 
A   40
 C10
A   41
 C11
A   42
 C12
A   43
 C13
M  END
