LIG
     RDKit          3D

 43 43  0  0  0  0  0  0  0  0999 V2000
   57.2680   58.8650  117.6970 C   0  0  0  0  0  0  0  0  0  0  0  0
   58.4830   58.7690  118.6150 C   0  0  0  0  0  0  0  0  0  0  0  0
   59.7200   58.3300  117.8650 C   0  0  0  0  0  0  0  0  0  0  0  0
   59.9590   58.5930  116.6980 O   0  0  0  0  0  0  0  0  0  0  0  0
   60.8500   57.3680  118.8180 S   0  0  0  0  0  0  0  0  0  0  0  0
   60.3860   57.9110  120.4970 C   0  0  0  0  0  0  0  0  0  0  0  0
   60.9960   59.2140  121.0350 C   0  0  2  0  0  0  0  0  0  0  0  0
   59.8600   60.0020  122.2320 S   0  0  0  0  0  0  0  0  0  0  0  0
   61.2580   60.0890  119.9150 O   0  0  0  0  0  0  0  0  0  0  0  0
   60.8130   60.3590  123.1110 H   0  0  0  0  0  0  0  0  0  0  0  0
   62.3480   59.5360  119.1050 O   0  0  0  0  0  0  0  0  0  0  0  0
   53.0840   60.6240  118.2360 H   0  0  0  0  0  0  0  0  0  0  0  0
   57.5800   59.2470  116.7300 H   0  0  0  0  0  0  0  0  0  0  0  0
   56.8780   57.8530  117.5210 H   0  0  0  0  0  0  0  0  0  0  0  0
   60.6360   57.0900  121.1800 H   0  0  0  0  0  0  0  0  0  0  0  0
   59.2970   57.9790  120.5420 H   0  0  0  0  0  0  0  0  0  0  0  0
   61.9340   59.0070  121.5540 H   0  0  0  0  0  0  0  0  0  0  0  0
   61.8150   59.3460  118.3060 H   0  0  0  0  0  0  0  0  0  0  0  0
   58.7010   59.7400  119.0690 H   0  0  0  0  0  0  0  0  0  0  0  0
   58.2830   58.0580  119.4130 H   0  0  0  0  0  0  0  0  0  0  0  0
   55.5200   63.1480  120.4880 C   0  0  0  0  0  0  0  0  0  0  0  0
   56.9580   62.9320  120.2610 C   0  0  0  0  0  0  0  0  0  0  0  0
   58.1320   62.7760  120.0480 C   0  0  0  0  0  0  0  0  0  0  0  0
   59.1740   62.6490  119.8580 H   0  0  0  0  0  0  0  0  0  0  0  0
   54.7370   62.7390  119.3160 N   0  0  0  0  0  0  0  0  0  0  0  0
   55.1940   62.5900  121.3740 H   0  0  0  0  0  0  0  0  0  0  0  0
   53.4020   63.3430  119.2200 C   0  0  0  0  0  0  0  0  0  0  0  0
   53.1140   63.5400  118.1790 H   0  0  0  0  0  0  0  0  0  0  0  0
   52.6370   62.6750  119.6290 H   0  0  0  0  0  0  0  0  0  0  0  0
   53.3720   64.2940  119.7700 H   0  0  0  0  0  0  0  0  0  0  0  0
   54.2360   58.0000  116.0860 O   0  0  0  0  0  0  0  0  0  0  0  0
   54.7320   57.1500  116.0160 H   0  0  0  0  0  0  0  0  0  0  0  0
   54.4610   58.3210  117.4800 N   0  0  0  0  0  0  0  0  0  0  0  0
   57.2060   61.4170  118.8600 H   0  0  0  0  0  0  0  0  0  0  0  0
   56.6310   61.4800  117.1590 H   0  0  0  0  0  0  0  0  0  0  0  0
   55.1570   59.9620  116.4260 H   0  0  0  0  0  0  0  0  0  0  0  0
   55.3310   64.1990  120.7330 H   0  0  0  0  0  0  0  0  0  0  0  0
   53.5070   58.3780  117.8330 H   0  0  0  0  0  0  0  0  0  0  0  0
   56.1870   59.6960  118.2560 N   0  0  0  0  0  0  0  0  0  0  0  0
   56.4120   61.1300  118.1700 C   0  0  0  0  0  0  0  0  0  0  0  0
   55.0230   61.5920  118.6030 C   0  0  0  0  0  0  0  0  0  0  0  0
   54.1560   60.6520  118.1360 C   0  0  0  0  0  0  0  0  0  0  0  0
   54.9990   59.6460  117.4490 C   0  0  2  0  0  0  0  0  0  0  0  0
  1  2  1  0
  2  3  1  0
  3  5  1  0
  4  3  2  0
  5  6  1  0
  7  9  1  0
  8  7  1  0
  8 10  1  0
 11  9  1  0
  7  6  1  0
 13  1  1  0
 14  1  1  0
  6 15  1  0
  6 16  1  0
  7 17  1  1
 11 18  1  0
  2 19  1  0
  2 20  1  0
 21 25  1  0
 22 23  3  0
 22 21  1  0
 23 24  1  0
 21 26  1  0
 27 25  1  0
 27 28  1  0
 27 29  1  0
 27 30  1  0
 32 31  1  0
 33 31  1  0
 21 37  1  0
 33 38  1  0
 39 40  1  0
 39 43  1  0
 39  1  1  0
 40 41  1  0
 40 34  1  0
 40 35  1  0
 41 42  2  0
 41 25  1  0
 42 43  1  0
 42 12  1  0
 43 33  1  0
 43 36  1  6
A    1
 C1 
A    2
 C2 
A    3
 C3 
A    4
 O1 
A    5
 S1 
A    6
 C4 
A    7
 C10
A    8
 S2 
A    9
 O2 
A   10
 H3 
A   11
 O3 
A   12
 H4 
A   13
 H5 
A   14
 H6 
A   15
 H7 
A   16
 H8 
A   17
 H10
A   18
 H11
A   19
 H11
A   20
 H12
A   21
 C7 
A   22
 C8 
A   23
 C9 
A   24
 H1 
A   25
 H2 
A   26
 H9 
A   27
 C11
A   28
 H16
A   29
 H17
A   30
 H18
A   31
 H14
A   32
 H16
A   33
 N3 
A   34
 H17
A   35
 H18
A   36
 H19
A   37
 H20
A   38
 H21
M  END
